* NGSPICE file created from dac_8bit_flat.ext - technology: sky130A

.subckt dac_8bit_flat sample VDD VSS vlow vref vin q7 q6 q5 q4 q3 q2 q1 q0 ibiasn
+ ibiasp adc_clk comp_out comp_outm vcom
X0 se_fold_casc_wide_swing_ota_0/M13d se_fold_casc_wide_swing_ota_0/M13d se_fold_casc_wide_swing_ota_0/M13d VDD sky130_fd_pr__pfet_01v8_lvt ad=0p pd=0u as=0p ps=0u w=3e+06u l=4.8e+06u
X1 se_fold_casc_wide_swing_ota_0/vtail_cascp se_fold_casc_wide_swing_ota_0/vbias1 VDD VDD sky130_fd_pr__pfet_01v8_lvt ad=0p pd=0u as=0p ps=0u w=3e+06u l=4.8e+06u
X2 se_fold_casc_wide_swing_ota_0/vmirror se_fold_casc_wide_swing_ota_0/vbias3 se_fold_casc_wide_swing_ota_0/vcascnm VSS sky130_fd_pr__nfet_01v8 ad=0p pd=0u as=0p ps=0u w=3e+06u l=4.8e+06u
X3 vin sample c1m VSS sky130_fd_pr__nfet_01v8 ad=0p pd=0u as=0p ps=0u w=2e+06u l=1e+06u
X4 amux_2to1_4/B amux_2to1_13/SELB vref VDD sky130_fd_pr__pfet_01v8_hvt ad=0p pd=0u as=0p ps=0u w=2e+06u l=1e+06u
X5 VDD VDD VDD VDD sky130_fd_pr__pfet_01v8 ad=0p pd=0u as=0p ps=0u w=3e+06u l=4.8e+06u
X6 vcom c1m sky130_fd_pr__cap_mim_m3_1 l=7e+06u w=7e+06u
X7 se_fold_casc_wide_swing_ota_0/M13d se_fold_casc_wide_swing_ota_0/vbias2 se_fold_casc_wide_swing_ota_0/M16d VDD sky130_fd_pr__pfet_01v8 ad=0p pd=0u as=0p ps=0u w=3e+06u l=4.8e+06u
X8 latched_comparator_folded_0/vlatchm VSS VSS VSS sky130_fd_pr__nfet_01v8 ad=0p pd=0u as=0p ps=0u w=1e+06u l=300000u
X9 vlow VSS VSS VSS sky130_fd_pr__nfet_01v8 ad=0p pd=0u as=0p ps=0u w=2e+06u l=1e+06u
X10 amux_2to1_0/B amux_2to1_17/SELB vref VDD sky130_fd_pr__pfet_01v8_hvt ad=0p pd=0u as=0p ps=0u w=2e+06u l=1e+06u
X11 vlow VDD VDD VDD sky130_fd_pr__pfet_01v8_hvt ad=0p pd=0u as=0p ps=0u w=2e+06u l=1e+06u
X12 vcom c7m sky130_fd_pr__cap_mim_m3_1 l=7e+06u w=7e+06u
X13 a_30048_n54210# se_fold_casc_wide_swing_ota_0/vbias4 VSS VSS sky130_fd_pr__nfet_01v8 ad=0p pd=0u as=0p ps=0u w=3e+06u l=4.8e+06u
X14 se_fold_casc_wide_swing_ota_0/M9d se_fold_casc_wide_swing_ota_0/M9d se_fold_casc_wide_swing_ota_0/M9d VDD sky130_fd_pr__pfet_01v8 ad=0p pd=0u as=0p ps=0u w=3e+06u l=4.8e+06u
X15 amux_2to1_1/B sample c6m VDD sky130_fd_pr__pfet_01v8_hvt ad=0p pd=0u as=0p ps=0u w=2e+06u l=1e+06u
X16 vcom c5m sky130_fd_pr__cap_mim_m3_1 l=7e+06u w=7e+06u
X17 vcom c7m sky130_fd_pr__cap_mim_m3_1 l=7e+06u w=7e+06u
X18 latched_comparator_folded_0/vlatchm latched_comparator_folded_0/vlatchp VSS VSS sky130_fd_pr__nfet_01v8 ad=0p pd=0u as=0p ps=0u w=1e+06u l=300000u
X19 se_fold_casc_wide_swing_ota_0/vbias2 ibiasn VSS VSS sky130_fd_pr__nfet_01v8 ad=0p pd=0u as=0p ps=0u w=3e+06u l=4.8e+06u
X20 cdumm amux_2to1_6/SELB vin VDD sky130_fd_pr__pfet_01v8_hvt ad=0p pd=0u as=0p ps=0u w=2e+06u l=1e+06u
X21 vlow q2 amux_2to1_5/B VDD sky130_fd_pr__pfet_01v8_hvt ad=0p pd=0u as=0p ps=0u w=2e+06u l=1e+06u
X22 vcom vcom sky130_fd_pr__cap_mim_m3_1 l=7e+06u w=7e+06u
X23 vcom c6m sky130_fd_pr__cap_mim_m3_1 l=7e+06u w=7e+06u
X24 se_fold_casc_wide_swing_ota_0/vcascpm se_fold_casc_wide_swing_ota_0/vmirror VDD VDD sky130_fd_pr__pfet_01v8_lvt ad=0p pd=0u as=0p ps=0u w=3e+06u l=4.8e+06u
X25 se_fold_casc_wide_swing_ota_0/vbias1 se_fold_casc_wide_swing_ota_0/vbias1 se_fold_casc_wide_swing_ota_0/vbias2 VSS sky130_fd_pr__nfet_01v8_lvt ad=0p pd=0u as=0p ps=0u w=3e+06u l=4.8e+06u
X26 se_fold_casc_wide_swing_ota_0/vmirror se_fold_casc_wide_swing_ota_0/vbias3 se_fold_casc_wide_swing_ota_0/vcascnm VSS sky130_fd_pr__nfet_01v8 ad=0p pd=0u as=0p ps=0u w=3e+06u l=4.8e+06u
X27 se_fold_casc_wide_swing_ota_0/vcascpm vcom se_fold_casc_wide_swing_ota_0/vtail_cascn VSS sky130_fd_pr__nfet_01v8_lvt ad=0p pd=0u as=0p ps=0u w=3e+06u l=4.8e+06u
X28 VDD latched_comparator_folded_0/vcompp_buf comp_outm VDD sky130_fd_pr__pfet_01v8_hvt ad=0p pd=0u as=0p ps=0u w=1e+06u l=150000u
X29 se_fold_casc_wide_swing_ota_0/vbias3 se_fold_casc_wide_swing_ota_0/M8d se_fold_casc_wide_swing_ota_0/M8d VSS sky130_fd_pr__nfet_01v8 ad=0p pd=0u as=0p ps=0u w=3e+06u l=4.8e+06u
X30 c4m amux_2to1_3/SELB amux_2to1_3/B VSS sky130_fd_pr__nfet_01v8 ad=0p pd=0u as=0p ps=0u w=2e+06u l=1e+06u
X31 vcom vcom sky130_fd_pr__cap_mim_m3_1 l=7e+06u w=7e+06u
X32 vcom_buf se_fold_casc_wide_swing_ota_0/vbias3 se_fold_casc_wide_swing_ota_0/vcascnp VSS sky130_fd_pr__nfet_01v8 ad=0p pd=0u as=0p ps=0u w=3e+06u l=4.8e+06u
X33 VSS ibiasn ibiasn VSS sky130_fd_pr__nfet_01v8 ad=0p pd=0u as=0p ps=0u w=3e+06u l=4.8e+06u
X34 vlow VSS VSS VSS sky130_fd_pr__nfet_01v8 ad=0p pd=0u as=0p ps=0u w=2e+06u l=1e+06u
X35 vcom c7m sky130_fd_pr__cap_mim_m3_1 l=7e+06u w=7e+06u
X36 se_fold_casc_wide_swing_ota_0/vtail_cascn vcom_buf se_fold_casc_wide_swing_ota_0/vcascpp VSS sky130_fd_pr__nfet_01v8_lvt ad=0p pd=0u as=0p ps=0u w=3e+06u l=4.8e+06u
X37 VSS se_fold_casc_wide_swing_ota_0/vbias4 se_fold_casc_wide_swing_ota_0/vtail_cascn VSS sky130_fd_pr__nfet_01v8 ad=0p pd=0u as=0p ps=0u w=3e+06u l=4.8e+06u
X38 c1m amux_2to1_7/SELB amux_2to1_7/B VSS sky130_fd_pr__nfet_01v8 ad=0p pd=0u as=0p ps=0u w=2e+06u l=1e+06u
X39 se_fold_casc_wide_swing_ota_0/vbias1 se_fold_casc_wide_swing_ota_0/vbias1 se_fold_casc_wide_swing_ota_0/vbias2 VSS sky130_fd_pr__nfet_01v8_lvt ad=0p pd=0u as=0p ps=0u w=3e+06u l=4.8e+06u
X40 VSS se_fold_casc_wide_swing_ota_0/vbias4 se_fold_casc_wide_swing_ota_0/vcascnp VSS sky130_fd_pr__nfet_01v8 ad=0p pd=0u as=0p ps=0u w=3e+06u l=4.8e+06u
X41 se_fold_casc_wide_swing_ota_0/vcascpp se_fold_casc_wide_swing_ota_0/vcascpp se_fold_casc_wide_swing_ota_0/vcascpp VSS sky130_fd_pr__nfet_01v8_lvt ad=0p pd=0u as=0p ps=0u w=3e+06u l=4.8e+06u
X42 amux_2to1_1/B sample c6m VDD sky130_fd_pr__pfet_01v8_hvt ad=0p pd=0u as=0p ps=0u w=2e+06u l=1e+06u
X43 latched_comparator_folded_0/vlatchp vcom_buf latched_comparator_folded_0/vtailp VDD sky130_fd_pr__pfet_01v8_lvt ad=0p pd=0u as=0p ps=0u w=2e+06u l=1e+06u
X44 amux_2to1_13/SELB q3 VSS VSS sky130_fd_pr__nfet_01v8 ad=0p pd=0u as=0p ps=0u w=650000u l=150000u
X45 se_fold_casc_wide_swing_ota_0/vcascnp se_fold_casc_wide_swing_ota_0/vbias4 VSS VSS sky130_fd_pr__nfet_01v8 ad=0p pd=0u as=0p ps=0u w=3e+06u l=4.8e+06u
X46 se_fold_casc_wide_swing_ota_0/vcascpp vcom_buf se_fold_casc_wide_swing_ota_0/vtail_cascn VSS sky130_fd_pr__nfet_01v8_lvt ad=0p pd=0u as=0p ps=0u w=3e+06u l=4.8e+06u
X47 vin sample c6m VSS sky130_fd_pr__nfet_01v8 ad=0p pd=0u as=0p ps=0u w=2e+06u l=1e+06u
X48 se_fold_casc_wide_swing_ota_0/vbias2 se_fold_casc_wide_swing_ota_0/vbias2 se_fold_casc_wide_swing_ota_0/vbias2 VSS sky130_fd_pr__nfet_01v8_lvt ad=0p pd=0u as=0p ps=0u w=3e+06u l=4.8e+06u
X49 VSS VSS VSS VSS sky130_fd_pr__nfet_01v8 ad=0p pd=0u as=0p ps=0u w=3e+06u l=4.8e+06u
X50 cdumm amux_2to1_6/SELB amux_2to1_6/B VSS sky130_fd_pr__nfet_01v8 ad=0p pd=0u as=0p ps=0u w=2e+06u l=1e+06u
X51 vcom c4m sky130_fd_pr__cap_mim_m3_1 l=7e+06u w=7e+06u
X52 se_fold_casc_wide_swing_ota_0/vbias3 se_fold_casc_wide_swing_ota_0/M8d se_fold_casc_wide_swing_ota_0/M8d VSS sky130_fd_pr__nfet_01v8 ad=0p pd=0u as=0p ps=0u w=3e+06u l=4.8e+06u
X53 vcom vcom sky130_fd_pr__cap_mim_m3_1 l=7e+06u w=7e+06u
X54 c7m amux_2to1_0/SELB vin VDD sky130_fd_pr__pfet_01v8_hvt ad=0p pd=0u as=0p ps=0u w=2e+06u l=1e+06u
X55 VSS VSS vlow VSS sky130_fd_pr__nfet_01v8 ad=0p pd=0u as=0p ps=0u w=2e+06u l=1e+06u
X56 vcom c4m sky130_fd_pr__cap_mim_m3_1 l=7e+06u w=7e+06u
X57 se_fold_casc_wide_swing_ota_0/vtail_cascn vcom se_fold_casc_wide_swing_ota_0/vcascpm VSS sky130_fd_pr__nfet_01v8_lvt ad=0p pd=0u as=0p ps=0u w=3e+06u l=4.8e+06u
X58 amux_2to1_1/B amux_2to1_16/SELB vref VDD sky130_fd_pr__pfet_01v8_hvt ad=0p pd=0u as=0p ps=0u w=2e+06u l=1e+06u
X59 vcom c7m sky130_fd_pr__cap_mim_m3_1 l=7e+06u w=7e+06u
X60 se_fold_casc_wide_swing_ota_0/vcascnm se_fold_casc_wide_swing_ota_0/vcascnm se_fold_casc_wide_swing_ota_0/vcascnm VDD sky130_fd_pr__pfet_01v8_lvt ad=0p pd=0u as=0p ps=0u w=3e+06u l=4.8e+06u
X61 se_fold_casc_wide_swing_ota_0/vbias2 se_fold_casc_wide_swing_ota_0/vbias2 se_fold_casc_wide_swing_ota_0/vbias2 VSS sky130_fd_pr__nfet_01v8_lvt ad=0p pd=0u as=0p ps=0u w=3e+06u l=4.8e+06u
X62 vcom c7m sky130_fd_pr__cap_mim_m3_1 l=7e+06u w=7e+06u
X63 vcom vcom sky130_fd_pr__cap_mim_m3_1 l=7e+06u w=7e+06u
X64 vin amux_2to1_8/SELB c0m VDD sky130_fd_pr__pfet_01v8_hvt ad=0p pd=0u as=0p ps=0u w=2e+06u l=1e+06u
X65 se_fold_casc_wide_swing_ota_0/vcascpp vcom_buf se_fold_casc_wide_swing_ota_0/vtail_cascn VSS sky130_fd_pr__nfet_01v8_lvt ad=0p pd=0u as=0p ps=0u w=3e+06u l=4.8e+06u
X66 vcom c5m sky130_fd_pr__cap_mim_m3_1 l=7e+06u w=7e+06u
X67 vref amux_2to1_10/SELB amux_2to1_7/B VDD sky130_fd_pr__pfet_01v8_hvt ad=0p pd=0u as=0p ps=0u w=2e+06u l=1e+06u
X68 vcom c7m sky130_fd_pr__cap_mim_m3_1 l=7e+06u w=7e+06u
X69 VDD VDD VDD VDD sky130_fd_pr__pfet_01v8_lvt ad=0p pd=0u as=0p ps=0u w=3e+06u l=4.8e+06u
X70 se_fold_casc_wide_swing_ota_0/M8d se_fold_casc_wide_swing_ota_0/M8d se_fold_casc_wide_swing_ota_0/vbias3 VSS sky130_fd_pr__nfet_01v8 ad=0p pd=0u as=0p ps=0u w=3e+06u l=4.8e+06u
X71 VSS VSS amux_2to1_9/Y VSS sky130_fd_pr__nfet_01v8 ad=0p pd=0u as=0p ps=0u w=2e+06u l=1e+06u
X72 vref amux_2to1_13/SELB amux_2to1_4/B VDD sky130_fd_pr__pfet_01v8_hvt ad=0p pd=0u as=0p ps=0u w=2e+06u l=1e+06u
X73 vcom c5m sky130_fd_pr__cap_mim_m3_1 l=7e+06u w=7e+06u
X74 vcom vcom sky130_fd_pr__cap_mim_m3_1 l=7e+06u w=7e+06u
X75 se_fold_casc_wide_swing_ota_0/vbias2 se_fold_casc_wide_swing_ota_0/vbias1 se_fold_casc_wide_swing_ota_0/vbias1 VSS sky130_fd_pr__nfet_01v8_lvt ad=0p pd=0u as=0p ps=0u w=3e+06u l=4.8e+06u
X76 VSS se_fold_casc_wide_swing_ota_0/vbias4 a_30048_n54210# VSS sky130_fd_pr__nfet_01v8 ad=0p pd=0u as=0p ps=0u w=3e+06u l=4.8e+06u
X77 vcom c5m sky130_fd_pr__cap_mim_m3_1 l=7e+06u w=7e+06u
X78 se_fold_casc_wide_swing_ota_0/vbias2 se_fold_casc_wide_swing_ota_0/vbias1 se_fold_casc_wide_swing_ota_0/vbias1 VSS sky130_fd_pr__nfet_01v8_lvt ad=0p pd=0u as=0p ps=0u w=3e+06u l=4.8e+06u
X79 vcom_buf se_fold_casc_wide_swing_ota_0/vbias3 se_fold_casc_wide_swing_ota_0/vcascnp VSS sky130_fd_pr__nfet_01v8 ad=0p pd=0u as=0p ps=0u w=3e+06u l=4.8e+06u
X80 c7m amux_2to1_0/SELB amux_2to1_0/B VSS sky130_fd_pr__nfet_01v8 ad=0p pd=0u as=0p ps=0u w=2e+06u l=1e+06u
X81 vcom c7m sky130_fd_pr__cap_mim_m3_1 l=7e+06u w=7e+06u
X82 vcom_buf VSS sky130_fd_pr__cap_mim_m3_1 l=2.4e+07u w=2.6e+07u
X83 VSS latched_comparator_folded_0/vcompp_buf a_57227_n42089# VSS sky130_fd_pr__nfet_01v8 ad=0p pd=0u as=0p ps=0u w=650000u l=150000u
X84 se_fold_casc_wide_swing_ota_0/vcascnp se_fold_casc_wide_swing_ota_0/vbias4 VSS VSS sky130_fd_pr__nfet_01v8 ad=0p pd=0u as=0p ps=0u w=3e+06u l=4.8e+06u
X85 vin amux_2to1_8/SELB c0m VDD sky130_fd_pr__pfet_01v8_hvt ad=0p pd=0u as=0p ps=0u w=2e+06u l=1e+06u
X86 se_fold_casc_wide_swing_ota_0/M9d se_fold_casc_wide_swing_ota_0/vbias1 VDD VDD sky130_fd_pr__pfet_01v8_lvt ad=0p pd=0u as=0p ps=0u w=3e+06u l=4.8e+06u
X87 se_fold_casc_wide_swing_ota_0/M16d se_fold_casc_wide_swing_ota_0/vbias2 se_fold_casc_wide_swing_ota_0/M13d VDD sky130_fd_pr__pfet_01v8 ad=0p pd=0u as=0p ps=0u w=3e+06u l=4.8e+06u
X88 vcom_buf vcom_buf vcom_buf VSS sky130_fd_pr__nfet_01v8 ad=0p pd=0u as=0p ps=0u w=3e+06u l=4.8e+06u
X89 VDD VDD amux_2to1_2/B VDD sky130_fd_pr__pfet_01v8_hvt ad=0p pd=0u as=0p ps=0u w=2e+06u l=1e+06u
X90 vcom c6m sky130_fd_pr__cap_mim_m3_1 l=7e+06u w=7e+06u
X91 se_fold_casc_wide_swing_ota_0/M8d se_fold_casc_wide_swing_ota_0/M8d se_fold_casc_wide_swing_ota_0/vbias3 VSS sky130_fd_pr__nfet_01v8 ad=0p pd=0u as=0p ps=0u w=3e+06u l=4.8e+06u
X92 amux_2to1_8/SELB sample VSS VSS sky130_fd_pr__nfet_01v8 ad=0p pd=0u as=0p ps=0u w=650000u l=150000u
X93 amux_2to1_16/SELB q6 VSS VSS sky130_fd_pr__nfet_01v8 ad=0p pd=0u as=0p ps=0u w=650000u l=150000u
X94 vcom c6m sky130_fd_pr__cap_mim_m3_1 l=7e+06u w=7e+06u
X95 se_fold_casc_wide_swing_ota_0/vtail_cascp se_fold_casc_wide_swing_ota_0/vbias1 VDD VDD sky130_fd_pr__pfet_01v8_lvt ad=0p pd=0u as=0p ps=0u w=3e+06u l=4.8e+06u
X96 se_fold_casc_wide_swing_ota_0/vbias1 se_fold_casc_wide_swing_ota_0/vbias1 se_fold_casc_wide_swing_ota_0/vbias1 VSS sky130_fd_pr__nfet_01v8_lvt ad=0p pd=0u as=0p ps=0u w=3e+06u l=4.8e+06u
X97 c5m sample vin VSS sky130_fd_pr__nfet_01v8 ad=0p pd=0u as=0p ps=0u w=2e+06u l=1e+06u
X98 vcom c5m sky130_fd_pr__cap_mim_m3_1 l=7e+06u w=7e+06u
X99 se_fold_casc_wide_swing_ota_0/vbias2 se_fold_casc_wide_swing_ota_0/vbias1 se_fold_casc_wide_swing_ota_0/vbias1 VSS sky130_fd_pr__nfet_01v8_lvt ad=0p pd=0u as=0p ps=0u w=3e+06u l=4.8e+06u
X100 VSS se_fold_casc_wide_swing_ota_0/vbias4 se_fold_casc_wide_swing_ota_0/vcascnp VSS sky130_fd_pr__nfet_01v8 ad=0p pd=0u as=0p ps=0u w=3e+06u l=4.8e+06u
X101 se_fold_casc_wide_swing_ota_0/vbias4 se_fold_casc_wide_swing_ota_0/vbias3 a_30048_n54210# VSS sky130_fd_pr__nfet_01v8 ad=0p pd=0u as=0p ps=0u w=3e+06u l=4.8e+06u
X102 vcom c7m sky130_fd_pr__cap_mim_m3_1 l=7e+06u w=7e+06u
X103 se_fold_casc_wide_swing_ota_0/M7d se_fold_casc_wide_swing_ota_0/M7d se_fold_casc_wide_swing_ota_0/M7d VDD sky130_fd_pr__pfet_01v8_lvt ad=0p pd=0u as=0p ps=0u w=3e+06u l=4.8e+06u
X104 se_fold_casc_wide_swing_ota_0/vmirror se_fold_casc_wide_swing_ota_0/vbias3 se_fold_casc_wide_swing_ota_0/vcascnm VSS sky130_fd_pr__nfet_01v8 ad=0p pd=0u as=0p ps=0u w=3e+06u l=4.8e+06u
X105 se_fold_casc_wide_swing_ota_0/vtail_cascn se_fold_casc_wide_swing_ota_0/vbias4 VSS VSS sky130_fd_pr__nfet_01v8 ad=0p pd=0u as=0p ps=0u w=3e+06u l=4.8e+06u
X106 vcom vcom sky130_fd_pr__cap_mim_m3_1 l=7e+06u w=7e+06u
X107 se_fold_casc_wide_swing_ota_0/vtail_cascn se_fold_casc_wide_swing_ota_0/vbias4 VSS VSS sky130_fd_pr__nfet_01v8 ad=0p pd=0u as=0p ps=0u w=3e+06u l=4.8e+06u
X108 se_fold_casc_wide_swing_ota_0/vcascpm vcom se_fold_casc_wide_swing_ota_0/vtail_cascn VSS sky130_fd_pr__nfet_01v8_lvt ad=0p pd=0u as=0p ps=0u w=3e+06u l=4.8e+06u
X109 VDD VDD amux_2to1_5/B VDD sky130_fd_pr__pfet_01v8_hvt ad=0p pd=0u as=0p ps=0u w=2e+06u l=1e+06u
X110 amux_2to1_3/B q4 vlow VDD sky130_fd_pr__pfet_01v8_hvt ad=0p pd=0u as=0p ps=0u w=2e+06u l=1e+06u
X111 se_fold_casc_wide_swing_ota_0/vcascpp VDD VDD VDD sky130_fd_pr__pfet_01v8 ad=0p pd=0u as=0p ps=0u w=3e+06u l=4.8e+06u
X112 VSS VSS vlow VSS sky130_fd_pr__nfet_01v8 ad=0p pd=0u as=0p ps=0u w=2e+06u l=1e+06u
X113 vref VDD VDD VDD sky130_fd_pr__pfet_01v8_hvt ad=0p pd=0u as=0p ps=0u w=2e+06u l=1e+06u
X114 se_fold_casc_wide_swing_ota_0/vbias3 se_fold_casc_wide_swing_ota_0/M8d se_fold_casc_wide_swing_ota_0/M8d VSS sky130_fd_pr__nfet_01v8 ad=0p pd=0u as=0p ps=0u w=3e+06u l=4.8e+06u
X115 se_fold_casc_wide_swing_ota_0/vcascnp se_fold_casc_wide_swing_ota_0/vbias4 VSS VSS sky130_fd_pr__nfet_01v8 ad=0p pd=0u as=0p ps=0u w=3e+06u l=4.8e+06u
X116 amux_2to1_8/SELB sample VDD VDD sky130_fd_pr__pfet_01v8_hvt ad=0p pd=0u as=0p ps=0u w=1e+06u l=150000u
X117 vcom c7m sky130_fd_pr__cap_mim_m3_1 l=7e+06u w=7e+06u
X118 amux_2to1_9/Y q0 vlow VDD sky130_fd_pr__pfet_01v8_hvt ad=0p pd=0u as=0p ps=0u w=2e+06u l=1e+06u
X119 vlow sample vcom VSS sky130_fd_pr__nfet_01v8 ad=0p pd=0u as=0p ps=0u w=1e+06u l=1e+06u
X120 c3m sample amux_2to1_4/B VDD sky130_fd_pr__pfet_01v8_hvt ad=0p pd=0u as=0p ps=0u w=2e+06u l=1e+06u
X121 c2m sample vin VSS sky130_fd_pr__nfet_01v8 ad=0p pd=0u as=0p ps=0u w=2e+06u l=1e+06u
X122 vcom c3m sky130_fd_pr__cap_mim_m3_1 l=7e+06u w=7e+06u
X123 VDD se_fold_casc_wide_swing_ota_0/vmirror se_fold_casc_wide_swing_ota_0/vcascpm VDD sky130_fd_pr__pfet_01v8_lvt ad=0p pd=0u as=0p ps=0u w=3e+06u l=4.8e+06u
X124 se_fold_casc_wide_swing_ota_0/vbias1 se_fold_casc_wide_swing_ota_0/vbias1 se_fold_casc_wide_swing_ota_0/vbias2 VSS sky130_fd_pr__nfet_01v8_lvt ad=0p pd=0u as=0p ps=0u w=3e+06u l=4.8e+06u
X125 vin VDD VDD VDD sky130_fd_pr__pfet_01v8_hvt ad=0p pd=0u as=0p ps=0u w=2e+06u l=1e+06u
X126 latched_comparator_folded_0/vlatchm VDD VDD VDD sky130_fd_pr__pfet_01v8_lvt ad=0p pd=0u as=0p ps=0u w=2e+06u l=1e+06u
X127 vcom c4m sky130_fd_pr__cap_mim_m3_1 l=7e+06u w=7e+06u
X128 vcom c0m sky130_fd_pr__cap_mim_m3_1 l=7e+06u w=7e+06u
X129 vref q4 amux_2to1_3/B VSS sky130_fd_pr__nfet_01v8 ad=0p pd=0u as=0p ps=0u w=2e+06u l=1e+06u
X130 vcom vcom sky130_fd_pr__cap_mim_m3_1 l=7e+06u w=7e+06u
X131 vcom c6m sky130_fd_pr__cap_mim_m3_1 l=7e+06u w=7e+06u
X132 se_fold_casc_wide_swing_ota_0/vtail_cascn se_fold_casc_wide_swing_ota_0/vbias4 VSS VSS sky130_fd_pr__nfet_01v8 ad=0p pd=0u as=0p ps=0u w=3e+06u l=4.8e+06u
X133 a_30048_n54210# se_fold_casc_wide_swing_ota_0/vbias3 se_fold_casc_wide_swing_ota_0/vbias4 VSS sky130_fd_pr__nfet_01v8 ad=0p pd=0u as=0p ps=0u w=3e+06u l=4.8e+06u
X134 se_fold_casc_wide_swing_ota_0/vcascnp se_fold_casc_wide_swing_ota_0/vcascnp se_fold_casc_wide_swing_ota_0/vcascnp VSS sky130_fd_pr__nfet_01v8 ad=0p pd=0u as=0p ps=0u w=3e+06u l=4.8e+06u
X135 vref amux_2to1_16/SELB amux_2to1_1/B VDD sky130_fd_pr__pfet_01v8_hvt ad=0p pd=0u as=0p ps=0u w=2e+06u l=1e+06u
X136 amux_2to1_6/B VSS vlow VDD sky130_fd_pr__pfet_01v8_hvt ad=0p pd=0u as=0p ps=0u w=2e+06u l=1e+06u
X137 vcom vcom sky130_fd_pr__cap_mim_m3_1 l=7e+06u w=7e+06u
X138 se_fold_casc_wide_swing_ota_0/vcascpp se_fold_casc_wide_swing_ota_0/vbias2 vcom_buf VDD sky130_fd_pr__pfet_01v8 ad=0p pd=0u as=0p ps=0u w=3e+06u l=4.8e+06u
X139 vcom vcom sky130_fd_pr__cap_mim_m3_1 l=7e+06u w=7e+06u
X140 vref q0 amux_2to1_9/Y VSS sky130_fd_pr__nfet_01v8 ad=0p pd=0u as=0p ps=0u w=2e+06u l=1e+06u
X141 vcom c4m sky130_fd_pr__cap_mim_m3_1 l=7e+06u w=7e+06u
X142 vcom c7m sky130_fd_pr__cap_mim_m3_1 l=7e+06u w=7e+06u
X143 amux_2to1_10/SELB q1 VDD VDD sky130_fd_pr__pfet_01v8_hvt ad=0p pd=0u as=0p ps=0u w=1e+06u l=150000u
X144 VDD latched_comparator_folded_0/vcompm latched_comparator_folded_0/vcompp VDD sky130_fd_pr__pfet_01v8 ad=0p pd=0u as=0p ps=0u w=2e+06u l=1e+06u
X145 se_fold_casc_wide_swing_ota_0/vmirror se_fold_casc_wide_swing_ota_0/vbias3 se_fold_casc_wide_swing_ota_0/vcascnm VSS sky130_fd_pr__nfet_01v8 ad=0p pd=0u as=0p ps=0u w=3e+06u l=4.8e+06u
X146 amux_2to1_4/B VSS VSS VSS sky130_fd_pr__nfet_01v8 ad=0p pd=0u as=0p ps=0u w=2e+06u l=1e+06u
X147 se_fold_casc_wide_swing_ota_0/vcascnm se_fold_casc_wide_swing_ota_0/vbias4 VSS VSS sky130_fd_pr__nfet_01v8 ad=0p pd=0u as=0p ps=0u w=3e+06u l=4.8e+06u
X148 se_fold_casc_wide_swing_ota_0/vtail_cascn vcom_buf se_fold_casc_wide_swing_ota_0/vcascpp VSS sky130_fd_pr__nfet_01v8_lvt ad=0p pd=0u as=0p ps=0u w=3e+06u l=4.8e+06u
X149 vref VSS amux_2to1_6/B VSS sky130_fd_pr__nfet_01v8 ad=0p pd=0u as=0p ps=0u w=2e+06u l=1e+06u
X150 vcom c7m sky130_fd_pr__cap_mim_m3_1 l=7e+06u w=7e+06u
X151 se_fold_casc_wide_swing_ota_0/vcascnm se_fold_casc_wide_swing_ota_0/vbias3 se_fold_casc_wide_swing_ota_0/vmirror VSS sky130_fd_pr__nfet_01v8 ad=0p pd=0u as=0p ps=0u w=3e+06u l=4.8e+06u
X152 vcom c6m sky130_fd_pr__cap_mim_m3_1 l=7e+06u w=7e+06u
X153 se_fold_casc_wide_swing_ota_0/vcascnm se_fold_casc_wide_swing_ota_0/vbias4 VSS VSS sky130_fd_pr__nfet_01v8 ad=0p pd=0u as=0p ps=0u w=3e+06u l=4.8e+06u
X154 se_fold_casc_wide_swing_ota_0/M8d se_fold_casc_wide_swing_ota_0/M8d se_fold_casc_wide_swing_ota_0/vbias3 VSS sky130_fd_pr__nfet_01v8 ad=0p pd=0u as=0p ps=0u w=3e+06u l=4.8e+06u
X155 se_fold_casc_wide_swing_ota_0/vcascnp se_fold_casc_wide_swing_ota_0/vbias3 vcom_buf VSS sky130_fd_pr__nfet_01v8 ad=0p pd=0u as=0p ps=0u w=3e+06u l=4.8e+06u
X156 vcom c7m sky130_fd_pr__cap_mim_m3_1 l=7e+06u w=7e+06u
X157 VDD se_fold_casc_wide_swing_ota_0/vmirror se_fold_casc_wide_swing_ota_0/vcascpp VDD sky130_fd_pr__pfet_01v8_lvt ad=0p pd=0u as=0p ps=0u w=3e+06u l=4.8e+06u
X158 VSS se_fold_casc_wide_swing_ota_0/vbias4 se_fold_casc_wide_swing_ota_0/vcascnm VSS sky130_fd_pr__nfet_01v8 ad=0p pd=0u as=0p ps=0u w=3e+06u l=4.8e+06u
X159 amux_2to1_2/B amux_2to1_15/SELB vlow VSS sky130_fd_pr__nfet_01v8 ad=0p pd=0u as=0p ps=0u w=2e+06u l=1e+06u
X160 amux_2to1_0/B q7 vlow VDD sky130_fd_pr__pfet_01v8_hvt ad=0p pd=0u as=0p ps=0u w=2e+06u l=1e+06u
X161 vcom c4m sky130_fd_pr__cap_mim_m3_1 l=7e+06u w=7e+06u
X162 VSS se_fold_casc_wide_swing_ota_0/vbias4 se_fold_casc_wide_swing_ota_0/vtail_cascn VSS sky130_fd_pr__nfet_01v8 ad=0p pd=0u as=0p ps=0u w=3e+06u l=4.8e+06u
X163 vin amux_2to1_3/SELB c4m VDD sky130_fd_pr__pfet_01v8_hvt ad=0p pd=0u as=0p ps=0u w=2e+06u l=1e+06u
X164 vref amux_2to1_13/SELB amux_2to1_4/B VDD sky130_fd_pr__pfet_01v8_hvt ad=0p pd=0u as=0p ps=0u w=2e+06u l=1e+06u
X165 se_fold_casc_wide_swing_ota_0/vbias1 se_fold_casc_wide_swing_ota_0/vbias1 se_fold_casc_wide_swing_ota_0/vbias2 VSS sky130_fd_pr__nfet_01v8_lvt ad=0p pd=0u as=0p ps=0u w=3e+06u l=4.8e+06u
X166 se_fold_casc_wide_swing_ota_0/vtail_cascn se_fold_casc_wide_swing_ota_0/vtail_cascn se_fold_casc_wide_swing_ota_0/vtail_cascn VSS sky130_fd_pr__nfet_01v8 ad=0p pd=0u as=0p ps=0u w=3e+06u l=4.8e+06u
X167 vcom c5m sky130_fd_pr__cap_mim_m3_1 l=7e+06u w=7e+06u
X168 vcom c4m sky130_fd_pr__cap_mim_m3_1 l=7e+06u w=7e+06u
X169 vcom c6m sky130_fd_pr__cap_mim_m3_1 l=7e+06u w=7e+06u
X170 latched_comparator_folded_0/vlatchp latched_comparator_folded_0/vlatchm VSS VSS sky130_fd_pr__nfet_01v8 ad=0p pd=0u as=0p ps=0u w=1e+06u l=300000u
X171 se_fold_casc_wide_swing_ota_0/vtail_cascn vcom se_fold_casc_wide_swing_ota_0/vcascpm VSS sky130_fd_pr__nfet_01v8_lvt ad=0p pd=0u as=0p ps=0u w=3e+06u l=4.8e+06u
X172 se_fold_casc_wide_swing_ota_0/vcascnm se_fold_casc_wide_swing_ota_0/vbias4 VSS VSS sky130_fd_pr__nfet_01v8 ad=0p pd=0u as=0p ps=0u w=3e+06u l=4.8e+06u
X173 vcom c5m sky130_fd_pr__cap_mim_m3_1 l=7e+06u w=7e+06u
X174 se_fold_casc_wide_swing_ota_0/vbias3 se_fold_casc_wide_swing_ota_0/M8d se_fold_casc_wide_swing_ota_0/M8d VSS sky130_fd_pr__nfet_01v8 ad=0p pd=0u as=0p ps=0u w=3e+06u l=4.8e+06u
X175 a_30048_n54210# se_fold_casc_wide_swing_ota_0/vbias4 VSS VSS sky130_fd_pr__nfet_01v8 ad=0p pd=0u as=0p ps=0u w=3e+06u l=4.8e+06u
X176 vin VDD VDD VDD sky130_fd_pr__pfet_01v8_hvt ad=0p pd=0u as=0p ps=0u w=2e+06u l=1e+06u
X177 c6m sample amux_2to1_1/B VDD sky130_fd_pr__pfet_01v8_hvt ad=0p pd=0u as=0p ps=0u w=2e+06u l=1e+06u
X178 vlow q0 amux_2to1_9/Y VDD sky130_fd_pr__pfet_01v8_hvt ad=0p pd=0u as=0p ps=0u w=2e+06u l=1e+06u
X179 se_fold_casc_wide_swing_ota_0/vtail_cascp se_fold_casc_wide_swing_ota_0/vbias1 VDD VDD sky130_fd_pr__pfet_01v8_lvt ad=0p pd=0u as=0p ps=0u w=3e+06u l=4.8e+06u
X180 vcom vcom sky130_fd_pr__cap_mim_m3_1 l=7e+06u w=7e+06u
X181 se_fold_casc_wide_swing_ota_0/vbias1 se_fold_casc_wide_swing_ota_0/vbias1 se_fold_casc_wide_swing_ota_0/vbias2 VSS sky130_fd_pr__nfet_01v8_lvt ad=0p pd=0u as=0p ps=0u w=3e+06u l=4.8e+06u
X182 vref q7 amux_2to1_0/B VSS sky130_fd_pr__nfet_01v8 ad=0p pd=0u as=0p ps=0u w=2e+06u l=1e+06u
X183 amux_2to1_5/B amux_2to1_12/SELB vlow VSS sky130_fd_pr__nfet_01v8 ad=0p pd=0u as=0p ps=0u w=2e+06u l=1e+06u
X184 VDD se_fold_casc_wide_swing_ota_0/vmirror se_fold_casc_wide_swing_ota_0/vcascpm VDD sky130_fd_pr__pfet_01v8_lvt ad=0p pd=0u as=0p ps=0u w=3e+06u l=4.8e+06u
X185 VSS se_fold_casc_wide_swing_ota_0/vbias4 se_fold_casc_wide_swing_ota_0/vcascnp VSS sky130_fd_pr__nfet_01v8 ad=0p pd=0u as=0p ps=0u w=3e+06u l=4.8e+06u
X186 se_fold_casc_wide_swing_ota_0/vcascnm se_fold_casc_wide_swing_ota_0/vbias4 VSS VSS sky130_fd_pr__nfet_01v8 ad=0p pd=0u as=0p ps=0u w=3e+06u l=4.8e+06u
X187 vin amux_2to1_6/SELB cdumm VDD sky130_fd_pr__pfet_01v8_hvt ad=0p pd=0u as=0p ps=0u w=2e+06u l=1e+06u
X188 amux_2to1_7/B VSS VSS VSS sky130_fd_pr__nfet_01v8 ad=0p pd=0u as=0p ps=0u w=2e+06u l=1e+06u
X189 se_fold_casc_wide_swing_ota_0/vtail_cascn vcom se_fold_casc_wide_swing_ota_0/vcascpm VSS sky130_fd_pr__nfet_01v8_lvt ad=0p pd=0u as=0p ps=0u w=3e+06u l=4.8e+06u
X190 latched_comparator_folded_0/vlatchm vlow latched_comparator_folded_0/vtailp VDD sky130_fd_pr__pfet_01v8_lvt ad=0p pd=0u as=0p ps=0u w=2e+06u l=1e+06u
X191 se_fold_casc_wide_swing_ota_0/vtail_cascn vcom_buf se_fold_casc_wide_swing_ota_0/vcascpp VSS sky130_fd_pr__nfet_01v8_lvt ad=0p pd=0u as=0p ps=0u w=3e+06u l=4.8e+06u
X192 vcom vcom sky130_fd_pr__cap_mim_m3_1 l=7e+06u w=7e+06u
X193 VDD se_fold_casc_wide_swing_ota_0/vbias1 se_fold_casc_wide_swing_ota_0/M13d VDD sky130_fd_pr__pfet_01v8_lvt ad=0p pd=0u as=0p ps=0u w=3e+06u l=4.8e+06u
X194 VDD VDD VDD VDD sky130_fd_pr__pfet_01v8_lvt ad=0p pd=0u as=0p ps=0u w=3e+06u l=4.8e+06u
X195 amux_2to1_1/B VSS VSS VSS sky130_fd_pr__nfet_01v8 ad=0p pd=0u as=0p ps=0u w=2e+06u l=1e+06u
X196 vcom c7m sky130_fd_pr__cap_mim_m3_1 l=7e+06u w=7e+06u
X197 se_fold_casc_wide_swing_ota_0/vcascpp se_fold_casc_wide_swing_ota_0/vmirror VDD VDD sky130_fd_pr__pfet_01v8_lvt ad=0p pd=0u as=0p ps=0u w=3e+06u l=4.8e+06u
X198 latched_comparator_folded_0/vlatchm adc_clk latched_comparator_folded_0/vcompm VSS sky130_fd_pr__nfet_01v8 ad=0p pd=0u as=0p ps=0u w=1e+06u l=300000u
X199 c1m amux_2to1_7/SELB vin VDD sky130_fd_pr__pfet_01v8_hvt ad=0p pd=0u as=0p ps=0u w=2e+06u l=1e+06u
X200 vcom vcom sky130_fd_pr__cap_mim_m3_1 l=7e+06u w=7e+06u
X201 vcom vcom sky130_fd_pr__cap_mim_m3_1 l=7e+06u w=7e+06u
X202 VDD VDD VDD VDD sky130_fd_pr__pfet_01v8_lvt ad=0p pd=0u as=0p ps=0u w=3e+06u l=4.8e+06u
X203 se_fold_casc_wide_swing_ota_0/vtail_cascn vcom_buf se_fold_casc_wide_swing_ota_0/vcascpp VSS sky130_fd_pr__nfet_01v8_lvt ad=0p pd=0u as=0p ps=0u w=3e+06u l=4.8e+06u
X204 vcom c6m sky130_fd_pr__cap_mim_m3_1 l=7e+06u w=7e+06u
X205 vcom vcom sky130_fd_pr__cap_mim_m3_1 l=7e+06u w=7e+06u
X206 vcom_buf vcom_buf vcom_buf VDD sky130_fd_pr__pfet_01v8 ad=0p pd=0u as=0p ps=0u w=3e+06u l=4.8e+06u
X207 se_fold_casc_wide_swing_ota_0/M8d se_fold_casc_wide_swing_ota_0/M8d se_fold_casc_wide_swing_ota_0/vbias3 VSS sky130_fd_pr__nfet_01v8 ad=0p pd=0u as=0p ps=0u w=3e+06u l=4.8e+06u
X208 vcom c5m sky130_fd_pr__cap_mim_m3_1 l=7e+06u w=7e+06u
X209 vcom c7m sky130_fd_pr__cap_mim_m3_1 l=7e+06u w=7e+06u
X210 latched_comparator_folded_0/vcompm latched_comparator_folded_0/vcompp VDD VDD sky130_fd_pr__pfet_01v8 ad=0p pd=0u as=0p ps=0u w=2e+06u l=1e+06u
X211 vin amux_2to1_0/SELB c7m VDD sky130_fd_pr__pfet_01v8_hvt ad=0p pd=0u as=0p ps=0u w=2e+06u l=1e+06u
X212 vref amux_2to1_16/SELB amux_2to1_1/B VDD sky130_fd_pr__pfet_01v8_hvt ad=0p pd=0u as=0p ps=0u w=2e+06u l=1e+06u
X213 se_fold_casc_wide_swing_ota_0/vcascpm se_fold_casc_wide_swing_ota_0/vmirror VDD VDD sky130_fd_pr__pfet_01v8_lvt ad=0p pd=0u as=0p ps=0u w=3e+06u l=4.8e+06u
X214 VDD VDD se_fold_casc_wide_swing_ota_0/vcascpp VDD sky130_fd_pr__pfet_01v8 ad=0p pd=0u as=0p ps=0u w=3e+06u l=4.8e+06u
X215 amux_2to1_9/Y amux_2to1_8/SELB c0m VSS sky130_fd_pr__nfet_01v8 ad=0p pd=0u as=0p ps=0u w=2e+06u l=1e+06u
X216 amux_2to1_4/B amux_2to1_13/SELB vref VDD sky130_fd_pr__pfet_01v8_hvt ad=0p pd=0u as=0p ps=0u w=2e+06u l=1e+06u
X217 vlow VDD VDD VDD sky130_fd_pr__pfet_01v8_hvt ad=0p pd=0u as=0p ps=0u w=2e+06u l=1e+06u
X218 se_fold_casc_wide_swing_ota_0/vtail_cascp se_fold_casc_wide_swing_ota_0/vbias1 VDD VDD sky130_fd_pr__pfet_01v8_lvt ad=0p pd=0u as=0p ps=0u w=3e+06u l=4.8e+06u
X219 se_fold_casc_wide_swing_ota_0/vbias2 se_fold_casc_wide_swing_ota_0/vbias1 se_fold_casc_wide_swing_ota_0/vbias1 VSS sky130_fd_pr__nfet_01v8_lvt ad=0p pd=0u as=0p ps=0u w=3e+06u l=4.8e+06u
X220 se_fold_casc_wide_swing_ota_0/vcascnp se_fold_casc_wide_swing_ota_0/vbias4 VSS VSS sky130_fd_pr__nfet_01v8 ad=0p pd=0u as=0p ps=0u w=3e+06u l=4.8e+06u
X221 VSS se_fold_casc_wide_swing_ota_0/vbias4 se_fold_casc_wide_swing_ota_0/vcascnm VSS sky130_fd_pr__nfet_01v8 ad=0p pd=0u as=0p ps=0u w=3e+06u l=4.8e+06u
X222 c0m amux_2to1_8/SELB vin VDD sky130_fd_pr__pfet_01v8_hvt ad=0p pd=0u as=0p ps=0u w=2e+06u l=1e+06u
X223 se_fold_casc_wide_swing_ota_0/vbias1 se_fold_casc_wide_swing_ota_0/vbias1 se_fold_casc_wide_swing_ota_0/vbias2 VSS sky130_fd_pr__nfet_01v8_lvt ad=0p pd=0u as=0p ps=0u w=3e+06u l=4.8e+06u
X224 VSS se_fold_casc_wide_swing_ota_0/vbias4 se_fold_casc_wide_swing_ota_0/vcascnm VSS sky130_fd_pr__nfet_01v8 ad=0p pd=0u as=0p ps=0u w=3e+06u l=4.8e+06u
X225 se_fold_casc_wide_swing_ota_0/vbias1 se_fold_casc_wide_swing_ota_0/vbias1 se_fold_casc_wide_swing_ota_0/vbias2 VSS sky130_fd_pr__nfet_01v8_lvt ad=0p pd=0u as=0p ps=0u w=3e+06u l=4.8e+06u
X226 se_fold_casc_wide_swing_ota_0/vtail_cascn se_fold_casc_wide_swing_ota_0/vbias4 VSS VSS sky130_fd_pr__nfet_01v8 ad=0p pd=0u as=0p ps=0u w=3e+06u l=4.8e+06u
X227 amux_2to1_14/SELB q4 VDD VDD sky130_fd_pr__pfet_01v8_hvt ad=0p pd=0u as=0p ps=0u w=1e+06u l=150000u
X228 vcom c3m sky130_fd_pr__cap_mim_m3_1 l=7e+06u w=7e+06u
X229 vcom c6m sky130_fd_pr__cap_mim_m3_1 l=7e+06u w=7e+06u
X230 vcom vcom sky130_fd_pr__cap_mim_m3_1 l=7e+06u w=7e+06u
X231 se_fold_casc_wide_swing_ota_0/vcascpp se_fold_casc_wide_swing_ota_0/vmirror VDD VDD sky130_fd_pr__pfet_01v8_lvt ad=0p pd=0u as=0p ps=0u w=3e+06u l=4.8e+06u
X232 latched_comparator_folded_0/vcompp adc_clk latched_comparator_folded_0/vlatchp VSS sky130_fd_pr__nfet_01v8 ad=0p pd=0u as=0p ps=0u w=1e+06u l=300000u
X233 se_fold_casc_wide_swing_ota_0/M13d se_fold_casc_wide_swing_ota_0/vbias2 se_fold_casc_wide_swing_ota_0/M16d VDD sky130_fd_pr__pfet_01v8 ad=0p pd=0u as=0p ps=0u w=3e+06u l=4.8e+06u
X234 se_fold_casc_wide_swing_ota_0/vbias4 se_fold_casc_wide_swing_ota_0/M8d se_fold_casc_wide_swing_ota_0/vbias3 VSS sky130_fd_pr__nfet_01v8 ad=0p pd=0u as=0p ps=0u w=3e+06u l=4.8e+06u
X235 se_fold_casc_wide_swing_ota_0/vcascnp se_fold_casc_wide_swing_ota_0/vcascnp se_fold_casc_wide_swing_ota_0/vcascnp VDD sky130_fd_pr__pfet_01v8_lvt ad=0p pd=0u as=0p ps=0u w=3e+06u l=4.8e+06u
X236 se_fold_casc_wide_swing_ota_0/vbias2 se_fold_casc_wide_swing_ota_0/vbias1 se_fold_casc_wide_swing_ota_0/vbias1 VSS sky130_fd_pr__nfet_01v8_lvt ad=0p pd=0u as=0p ps=0u w=3e+06u l=4.8e+06u
X237 vcom c7m sky130_fd_pr__cap_mim_m3_1 l=7e+06u w=7e+06u
X238 VSS se_fold_casc_wide_swing_ota_0/vbias4 se_fold_casc_wide_swing_ota_0/vcascnm VSS sky130_fd_pr__nfet_01v8 ad=0p pd=0u as=0p ps=0u w=3e+06u l=4.8e+06u
X239 se_fold_casc_wide_swing_ota_0/vtail_cascn vcom se_fold_casc_wide_swing_ota_0/vcascpm VSS sky130_fd_pr__nfet_01v8_lvt ad=0p pd=0u as=0p ps=0u w=3e+06u l=4.8e+06u
X240 se_fold_casc_wide_swing_ota_0/vbias2 se_fold_casc_wide_swing_ota_0/vbias2 se_fold_casc_wide_swing_ota_0/vbias2 VSS sky130_fd_pr__nfet_01v8_lvt ad=0p pd=0u as=0p ps=0u w=3e+06u l=4.8e+06u
X241 se_fold_casc_wide_swing_ota_0/vbias2 se_fold_casc_wide_swing_ota_0/vbias2 se_fold_casc_wide_swing_ota_0/vbias2 VSS sky130_fd_pr__nfet_01v8_lvt ad=0p pd=0u as=0p ps=0u w=3e+06u l=4.8e+06u
X242 VDD VDD VDD VDD sky130_fd_pr__pfet_01v8 ad=0p pd=0u as=0p ps=0u w=3e+06u l=4.8e+06u
X243 amux_2to1_11/SELB VSS VDD VDD sky130_fd_pr__pfet_01v8_hvt ad=0p pd=0u as=0p ps=0u w=1e+06u l=150000u
X244 vcom c7m sky130_fd_pr__cap_mim_m3_1 l=7e+06u w=7e+06u