* NGSPICE file created from diff_fold_casc_ota_flat.ext - technology: sky130A

.subckt diff_fold_casc_ota_flat vop vom vip vim vocm ibiasn VDD VSS
X0 vom vbias2 vfoldm VDD sky130_fd_pr__pfet_01v8 ad=5.22e+12p pd=3.948e+07u as=8.7e+12p ps=6.58e+07u w=3e+06u l=4.8e+06u
X1 vop vbias2 vfoldp VDD sky130_fd_pr__pfet_01v8 ad=5.22e+12p pd=3.948e+07u as=8.7e+12p ps=6.58e+07u w=3e+06u l=4.8e+06u
X2 VDD vcmcn1_casc vcmcn1_casc VDD sky130_fd_pr__pfet_01v8 ad=4.147e+13p pd=3.1674e+08u as=4.06e+12p ps=3.206e+07u w=2e+06u l=800000u
X3 vfoldp vim vtail_casc VSS sky130_fd_pr__nfet_01v8_lvt ad=1.044e+13p pd=7.896e+07u as=4.176e+13p ps=3.1584e+08u w=3e+06u l=1.2e+06u
X4 vbias3 M3d M3d VSS sky130_fd_pr__nfet_01v8 ad=2.61e+13p pd=1.974e+08u as=2.262e+13p ps=1.7108e+08u w=3e+06u l=4.8e+06u
X5 vbias2 vbias1 vbias1 VSS sky130_fd_pr__nfet_01v8_lvt ad=3.915e+13p pd=2.961e+08u as=3.48e+13p ps=2.632e+08u w=3e+06u l=4.8e+06u
X6 VSS vcmc_casc vtail_casc VSS sky130_fd_pr__nfet_01v8 ad=6.699e+13p pd=5.0666e+08u as=0p ps=0u w=3e+06u l=4.8e+06u
X7 vtail_casc vim vfoldp VSS sky130_fd_pr__nfet_01v8_lvt ad=0p pd=0u as=0p ps=0u w=3e+06u l=1.2e+06u
X8 VSS vcmc_casc vtail_casc VSS sky130_fd_pr__nfet_01v8 ad=0p pd=0u as=0p ps=0u w=3e+06u l=4.8e+06u
X9 VSS VSS VSS VSS sky130_fd_pr__nfet_01v8 ad=0p pd=0u as=0p ps=0u w=3e+06u l=4.8e+06u
X10 vtail_casc vip vfoldm VSS sky130_fd_pr__nfet_01v8_lvt ad=0p pd=0u as=1.044e+13p ps=7.896e+07u w=3e+06u l=1.2e+06u
X11 vtail_casc vcmc_casc VSS VSS sky130_fd_pr__nfet_01v8 ad=0p pd=0u as=0p ps=0u w=3e+06u l=4.8e+06u
X12 vtail_casc vcmc_casc VSS VSS sky130_fd_pr__nfet_01v8 ad=0p pd=0u as=0p ps=0u w=3e+06u l=4.8e+06u
X13 M13d M13d VSS VSS sky130_fd_pr__nfet_01v8 ad=8.7e+11p pd=6.58e+06u as=0p ps=0u w=3e+06u l=4.8e+06u
X14 VSS vbias4 vtail_casc VSS sky130_fd_pr__nfet_01v8 ad=0p pd=0u as=0p ps=0u w=3e+06u l=4.8e+06u
X15 vbias2 vbias2 vbias2 VSS sky130_fd_pr__nfet_01v8 ad=0p pd=0u as=0p ps=0u w=3e+06u l=4.8e+06u
X16 vtail_casc vim vfoldp VSS sky130_fd_pr__nfet_01v8_lvt ad=0p pd=0u as=0p ps=0u w=3e+06u l=1.2e+06u
X17 vbias2 vbias1 vbias1 VSS sky130_fd_pr__nfet_01v8_lvt ad=0p pd=0u as=0p ps=0u w=3e+06u l=4.8e+06u
X18 vom VSS sky130_fd_pr__cap_mim_m3_1 l=1e+07u w=1e+07u
X19 vbias1 vbias1 vbias2 VSS sky130_fd_pr__nfet_01v8_lvt ad=0p pd=0u as=0p ps=0u w=3e+06u l=4.8e+06u
X20 vtail_casc vbias4 VSS VSS sky130_fd_pr__nfet_01v8 ad=0p pd=0u as=0p ps=0u w=3e+06u l=4.8e+06u
X21 vbias1 vbias2 M1d VDD sky130_fd_pr__pfet_01v8 ad=3.48e+12p pd=2.632e+07u as=1.044e+13p ps=7.896e+07u w=3e+06u l=4.8e+06u
X22 VDD vcmcn_casc vcmc_casc VDD sky130_fd_pr__pfet_01v8 ad=0p pd=0u as=4.06e+12p ps=3.206e+07u w=2e+06u l=800000u
X23 vom vbias3 vcascnm VSS sky130_fd_pr__nfet_01v8 ad=1.044e+13p pd=7.896e+07u as=1.566e+13p ps=1.1844e+08u w=3e+06u l=4.8e+06u
X24 vcascnp vbias3 vop VSS sky130_fd_pr__nfet_01v8 ad=1.566e+13p pd=1.1844e+08u as=1.044e+13p ps=7.896e+07u w=3e+06u l=4.8e+06u
X25 vtail_casc vbias4 VSS VSS sky130_fd_pr__nfet_01v8 ad=0p pd=0u as=0p ps=0u w=3e+06u l=4.8e+06u
X26 vcmc_casc vcmc_casc VSS VSS sky130_fd_pr__nfet_01v8 ad=8.7e+12p pd=6.58e+07u as=0p ps=0u w=3e+06u l=4.8e+06u
X27 vfoldp vim vtail_casc VSS sky130_fd_pr__nfet_01v8_lvt ad=0p pd=0u as=0p ps=0u w=3e+06u l=1.2e+06u
X28 M3d vbias2 M2d VDD sky130_fd_pr__pfet_01v8 ad=3.48e+12p pd=2.632e+07u as=1.044e+13p ps=7.896e+07u w=3e+06u l=4.8e+06u
X29 vbias3 M3d vbias4 VSS sky130_fd_pr__nfet_01v8 ad=0p pd=0u as=1.218e+13p ps=9.212e+07u w=3e+06u l=4.8e+06u
X30 VSS VSS VSS VSS sky130_fd_pr__nfet_01v8 ad=0p pd=0u as=0p ps=0u w=3e+06u l=4.8e+06u
X31 VDD vbias1 vfoldp VDD sky130_fd_pr__pfet_01v8_lvt ad=0p pd=0u as=0p ps=0u w=3e+06u l=4.8e+06u
X32 vbias4 vbias3 a_4604_n20952# VSS sky130_fd_pr__nfet_01v8 ad=0p pd=0u as=1.566e+13p ps=1.1844e+08u w=3e+06u l=4.8e+06u
X33 vbias1 vbias1 vbias2 VSS sky130_fd_pr__nfet_01v8_lvt ad=0p pd=0u as=0p ps=0u w=3e+06u l=4.8e+06u
X34 vom VSS sky130_fd_pr__cap_mim_m3_1 l=1e+07u w=1e+07u
X35 vcascnm vbias3 vom VSS sky130_fd_pr__nfet_01v8 ad=0p pd=0u as=0p ps=0u w=3e+06u l=4.8e+06u
X36 vcmcn1_casc vcmcn1_casc VDD VDD sky130_fd_pr__pfet_01v8 ad=0p pd=0u as=0p ps=0u w=2e+06u l=800000u
X37 M3d M3d vbias3 VSS sky130_fd_pr__nfet_01v8 ad=0p pd=0u as=0p ps=0u w=3e+06u l=4.8e+06u
X38 vbias3 M3d M3d VSS sky130_fd_pr__nfet_01v8 ad=0p pd=0u as=0p ps=0u w=3e+06u l=4.8e+06u
X39 vcmn_casc_tail1 vcmn_casc_tail1 vcmn_casc_tail1 VSS sky130_fd_pr__nfet_01v8 ad=5.51e+12p pd=4.322e+07u as=0p ps=0u w=3e+06u l=4.8e+06u
X40 vbias2 vbias1 vbias1 VSS sky130_fd_pr__nfet_01v8_lvt ad=0p pd=0u as=0p ps=0u w=3e+06u l=4.8e+06u
X41 vcmc_casc vcmc_casc vcmc_casc VDD sky130_fd_pr__pfet_01v8 ad=0p pd=0u as=0p ps=0u w=2e+06u l=800000u
X42 VSS vbias4 vcascnp VSS sky130_fd_pr__nfet_01v8 ad=0p pd=0u as=0p ps=0u w=3e+06u l=4.8e+06u
X43 VSS vbias4 a_4604_n20952# VSS sky130_fd_pr__nfet_01v8 ad=0p pd=0u as=0p ps=0u w=3e+06u l=4.8e+06u
X44 VDD VDD VDD VDD sky130_fd_pr__pfet_01v8 ad=0p pd=0u as=0p ps=0u w=3e+06u l=4.8e+06u
X45 a_4604_n20952# vbias4 VSS VSS sky130_fd_pr__nfet_01v8 ad=0p pd=0u as=0p ps=0u w=3e+06u l=4.8e+06u
X46 vcascnm vbias4 VSS VSS sky130_fd_pr__nfet_01v8 ad=0p pd=0u as=0p ps=0u w=3e+06u l=4.8e+06u
X47 vom vom vom VDD sky130_fd_pr__pfet_01v8 ad=0p pd=0u as=0p ps=0u w=3e+06u l=4.8e+06u
X48 vbias1 vbias1 vbias1 VSS sky130_fd_pr__nfet_01v8_lvt ad=0p pd=0u as=0p ps=0u w=3e+06u l=4.8e+06u
X49 VDD vcmcn2_casc vcmcn2_casc VDD sky130_fd_pr__pfet_01v8 ad=0p pd=0u as=4.06e+12p ps=3.206e+07u w=2e+06u l=800000u
X50 vop vop vop VDD sky130_fd_pr__pfet_01v8 ad=0p pd=0u as=0p ps=0u w=3e+06u l=4.8e+06u
X51 vop vop vop VSS sky130_fd_pr__nfet_01v8 ad=0p pd=0u as=0p ps=0u w=3e+06u l=4.8e+06u
X52 VDD vbias1 vfoldp VDD sky130_fd_pr__pfet_01v8_lvt ad=0p pd=0u as=0p ps=0u w=3e+06u l=4.8e+06u
X53 vcascnm vbias3 vom VSS sky130_fd_pr__nfet_01v8 ad=0p pd=0u as=0p ps=0u w=3e+06u l=4.8e+06u
X54 VDD vbias1 vfoldm VDD sky130_fd_pr__pfet_01v8_lvt ad=0p pd=0u as=0p ps=0u w=3e+06u l=4.8e+06u
X55 vcmc_casc vcmcn_casc VDD VDD sky130_fd_pr__pfet_01v8 ad=0p pd=0u as=0p ps=0u w=2e+06u l=800000u
X56 vom VSS sky130_fd_pr__cap_mim_m3_1 l=1e+07u w=1e+07u
X57 vbias1 vbias1 vbias1 VSS sky130_fd_pr__nfet_01v8_lvt ad=0p pd=0u as=0p ps=0u w=3e+06u l=4.8e+06u
X58 M3d M3d vbias3 VSS sky130_fd_pr__nfet_01v8 ad=0p pd=0u as=0p ps=0u w=3e+06u l=4.8e+06u
X59 vbias1 vbias1 vbias1 VSS sky130_fd_pr__nfet_01v8_lvt ad=0p pd=0u as=0p ps=0u w=3e+06u l=4.8e+06u
X60 VDD vcmcn2_casc vcmcn2_casc VDD sky130_fd_pr__pfet_01v8 ad=0p pd=0u as=0p ps=0u w=2e+06u l=800000u
X61 vbias3 M3d M3d VSS sky130_fd_pr__nfet_01v8 ad=0p pd=0u as=0p ps=0u w=3e+06u l=4.8e+06u
X62 VSS vbias4 vcascnm VSS sky130_fd_pr__nfet_01v8 ad=0p pd=0u as=0p ps=0u w=3e+06u l=4.8e+06u
X63 vcascnm vbias3 vom VSS sky130_fd_pr__nfet_01v8 ad=0p pd=0u as=0p ps=0u w=3e+06u l=4.8e+06u
X64 VSS VSS vcmc_casc VSS sky130_fd_pr__nfet_01v8 ad=0p pd=0u as=0p ps=0u w=3e+06u l=4.8e+06u
X65 VSS VSS sky130_fd_pr__cap_mim_m3_1 l=2e+06u w=1e+07u
X66 vcascnp vbias4 VSS VSS sky130_fd_pr__nfet_01v8 ad=0p pd=0u as=0p ps=0u w=3e+06u l=4.8e+06u
X67 VSS VSS sky130_fd_pr__cap_mim_m3_1 l=2e+06u w=1e+07u
X68 M1d M1d M1d VDD sky130_fd_pr__pfet_01v8_lvt ad=0p pd=0u as=0p ps=0u w=3e+06u l=4.8e+06u
X69 M3d M3d vbias3 VSS sky130_fd_pr__nfet_01v8 ad=0p pd=0u as=0p ps=0u w=3e+06u l=4.8e+06u
X70 vfoldm vbias1 VDD VDD sky130_fd_pr__pfet_01v8_lvt ad=0p pd=0u as=0p ps=0u w=3e+06u l=4.8e+06u
X71 VSS vbias4 vtail_casc VSS sky130_fd_pr__nfet_01v8 ad=0p pd=0u as=0p ps=0u w=3e+06u l=4.8e+06u
X72 vbias1 vbias1 vbias1 VSS sky130_fd_pr__nfet_01v8_lvt ad=0p pd=0u as=0p ps=0u w=3e+06u l=4.8e+06u
X73 vfoldp vbias1 VDD VDD sky130_fd_pr__pfet_01v8_lvt ad=0p pd=0u as=0p ps=0u w=3e+06u l=4.8e+06u
X74 VSS ibiasn vcmn_casc_tail2 VSS sky130_fd_pr__nfet_01v8 ad=0p pd=0u as=5.51e+12p ps=4.322e+07u w=3e+06u l=4.8e+06u
X75 VDD VDD M3d VDD sky130_fd_pr__pfet_01v8 ad=0p pd=0u as=0p ps=0u w=3e+06u l=4.8e+06u
X76 vcascnp vbias3 vop VSS sky130_fd_pr__nfet_01v8 ad=0p pd=0u as=0p ps=0u w=3e+06u l=4.8e+06u
X77 vop VSS sky130_fd_pr__cap_mim_m3_1 l=1e+07u w=1e+07u
X78 vcmc_casc vcmcn_casc VDD VDD sky130_fd_pr__pfet_01v8 ad=0p pd=0u as=0p ps=0u w=2e+06u l=800000u
X79 VSS vcmc_casc vcmc_casc VSS sky130_fd_pr__nfet_01v8 ad=0p pd=0u as=0p ps=0u w=3e+06u l=4.8e+06u
X80 VSS ibiasn ibiasn VSS sky130_fd_pr__nfet_01v8 ad=0p pd=0u as=4.35e+12p ps=3.29e+07u w=3e+06u l=4.8e+06u
X81 M2d M2d M2d VDD sky130_fd_pr__pfet_01v8 ad=0p pd=0u as=0p ps=0u w=3e+06u l=4.8e+06u
X82 vbias2 vbias2 vbias2 VSS sky130_fd_pr__nfet_01v8_lvt ad=0p pd=0u as=0p ps=0u w=3e+06u l=4.8e+06u
X83 vcmcn2_casc vcmcn2_casc VDD VDD sky130_fd_pr__pfet_01v8 ad=0p pd=0u as=0p ps=0u w=2e+06u l=800000u
X84 VSS vbias4 vtail_casc VSS sky130_fd_pr__nfet_01v8 ad=0p pd=0u as=0p ps=0u w=3e+06u l=4.8e+06u
X85 vbias2 vbias1 vbias1 VSS sky130_fd_pr__nfet_01v8_lvt ad=0p pd=0u as=0p ps=0u w=3e+06u l=4.8e+06u
X86 VDD vbias1 vfoldm VDD sky130_fd_pr__pfet_01v8_lvt ad=0p pd=0u as=0p ps=0u w=3e+06u l=4.8e+06u
X87 VSS VSS sky130_fd_pr__cap_mim_m3_1 l=2e+06u w=2e+06u
X88 vbias2 vbias2 vbias2 VSS sky130_fd_pr__nfet_01v8 ad=0p pd=0u as=0p ps=0u w=3e+06u l=4.8e+06u
X89 vtail_casc vip vfoldm VSS sky130_fd_pr__nfet_01v8_lvt ad=0p pd=0u as=0p ps=0u w=3e+06u l=1.2e+06u
X90 vbias2 vbias1 vbias1 VSS sky130_fd_pr__nfet_01v8_lvt ad=0p pd=0u as=0p ps=0u w=3e+06u l=4.8e+06u
X91 VSS vbias4 vtail_casc VSS sky130_fd_pr__nfet_01v8 ad=0p pd=0u as=0p ps=0u w=3e+06u l=4.8e+06u
X92 vcmcn_casc vom vcmn_casc_tail2 VSS sky130_fd_pr__nfet_01v8_lvt ad=2.9e+12p pd=2.58e+07u as=0p ps=0u w=1e+06u l=800000u
X93 VSS vbias4 vtail_casc VSS sky130_fd_pr__nfet_01v8 ad=0p pd=0u as=0p ps=0u w=3e+06u l=4.8e+06u
X94 VDD VDD VDD VDD sky130_fd_pr__pfet_01v8 ad=0p pd=0u as=0p ps=0u w=3e+06u l=4.8e+06u
X95 vtail_casc vbias4 VSS VSS sky130_fd_pr__nfet_01v8 ad=0p pd=0u as=0p ps=0u w=3e+06u l=4.8e+06u
X96 vfoldm vbias1 VDD VDD sky130_fd_pr__pfet_01v8_lvt ad=0p pd=0u as=0p ps=0u w=3e+06u l=4.8e+06u
X97 vcmcn2_casc vcmcn2_casc vcmcn2_casc VDD sky130_fd_pr__pfet_01v8 ad=0p pd=0u as=0p ps=0u w=2e+06u l=800000u
X98 vop vbias3 vcascnp VSS sky130_fd_pr__nfet_01v8 ad=0p pd=0u as=0p ps=0u w=3e+06u l=4.8e+06u
X99 vfoldp vbias1 VDD VDD sky130_fd_pr__pfet_01v8_lvt ad=0p pd=0u as=0p ps=0u w=3e+06u l=4.8e+06u
X100 vbias1 vbias1 vbias2 VSS sky130_fd_pr__nfet_01v8_lvt ad=0p pd=0u as=0p ps=0u w=3e+06u l=4.8e+06u
X101 vbias3 M3d M3d VSS sky130_fd_pr__nfet_01v8 ad=0p pd=0u as=0p ps=0u w=3e+06u l=4.8e+06u
X102 vbias2 vbias1 vbias1 VSS sky130_fd_pr__nfet_01v8_lvt ad=0p pd=0u as=0p ps=0u w=3e+06u l=4.8e+06u
X103 vcmn_casc_tail1 vocm vcmcn1_casc VSS sky130_fd_pr__nfet_01v8_lvt ad=0p pd=0u as=5.8e+11p ps=5.16e+06u w=1e+06u l=800000u
X104 vcmc_casc vcmc_casc VSS VSS sky130_fd_pr__nfet_01v8 ad=0p pd=0u as=0p ps=0u w=3e+06u l=4.8e+06u
X105 vcmcn_casc vcmcn_casc vcmcn_casc VSS sky130_fd_pr__nfet_01v8_lvt ad=0p pd=0u as=0p ps=0u w=1e+06u l=800000u
X106 vbias2 vbias1 vbias1 VSS sky130_fd_pr__nfet_01v8_lvt ad=0p pd=0u as=0p ps=0u w=3e+06u l=4.8e+06u
X107 vbias2 vbias1 vbias1 VSS sky130_fd_pr__nfet_01v8_lvt ad=0p pd=0u as=0p ps=0u w=3e+06u l=4.8e+06u
X108 VDD vcmcn_casc vcmcn_casc VDD sky130_fd_pr__pfet_01v8 ad=0p pd=0u as=4.06e+12p ps=3.206e+07u w=2e+06u l=800000u
X109 VSS VSS VSS VSS sky130_fd_pr__nfet_01v8 ad=0p pd=0u as=0p ps=0u w=3e+06u l=4.8e+06u
X110 vop VSS sky130_fd_pr__cap_mim_m3_1 l=1e+07u w=1e+07u
X111 vcmn_casc_tail1 ibiasn VSS VSS sky130_fd_pr__nfet_01v8 ad=0p pd=0u as=0p ps=0u w=3e+06u l=4.8e+06u
X112 M1d vbias1 VDD VDD sky130_fd_pr__pfet_01v8_lvt ad=0p pd=0u as=0p ps=0u w=3e+06u l=4.8e+06u
X113 VDD vcmcn1_casc vcmcn1_casc VDD sky130_fd_pr__pfet_01v8 ad=0p pd=0u as=0p ps=0u w=2e+06u l=800000u
X114 vom vbias3 vcascnm VSS sky130_fd_pr__nfet_01v8 ad=0p pd=0u as=0p ps=0u w=3e+06u l=4.8e+06u
X115 vbias2 vbias1 vbias1 VSS sky130_fd_pr__nfet_01v8_lvt ad=0p pd=0u as=0p ps=0u w=3e+06u l=4.8e+06u
X116 VDD vbias1 M6d VDD sky130_fd_pr__pfet_01v8_lvt ad=0p pd=0u as=8.7e+12p ps=6.58e+07u w=3e+06u l=4.8e+06u
X117 M3d M3d vbias3 VSS sky130_fd_pr__nfet_01v8 ad=0p pd=0u as=0p ps=0u w=3e+06u l=4.8e+06u
X118 vcmn_casc_tail1 vcmn_casc_tail1 vcmn_casc_tail1 VSS sky130_fd_pr__nfet_01v8 ad=0p pd=0u as=0p ps=0u w=3e+06u l=4.8e+06u
X119 VDD vbias1 M1d VDD sky130_fd_pr__pfet_01v8_lvt ad=0p pd=0u as=0p ps=0u w=3e+06u l=4.8e+06u
X120 vbias1 vbias2 M1d VDD sky130_fd_pr__pfet_01v8 ad=0p pd=0u as=0p ps=0u w=3e+06u l=4.8e+06u
X121 VSS VSS sky130_fd_pr__cap_mim_m3_1 l=1e+07u w=2e+06u
X122 VSS VSS sky130_fd_pr__cap_mim_m3_1 l=2e+06u w=2e+06u
X123 vop vbias3 vcascnp VSS sky130_fd_pr__nfet_01v8 ad=0p pd=0u as=0p ps=0u w=3e+06u l=4.8e+06u
X124 vcmcn2_casc vcmcn2_casc VDD VDD sky130_fd_pr__pfet_01v8 ad=0p pd=0u as=0p ps=0u w=2e+06u l=800000u
X125 vcmn_casc_tail1 vop vcmcn_casc VSS sky130_fd_pr__nfet_01v8_lvt ad=0p pd=0u as=0p ps=0u w=1e+06u l=800000u
X126 vbias1 vbias1 vbias2 VSS sky130_fd_pr__nfet_01v8_lvt ad=0p pd=0u as=0p ps=0u w=3e+06u l=4.8e+06u
X127 vtail_casc vtail_casc vtail_casc VSS sky130_fd_pr__nfet_01v8_lvt ad=0p pd=0u as=0p ps=0u w=3e+06u l=1.2e+06u
X128 VSS VSS sky130_fd_pr__cap_mim_m3_1 l=2e+06u w=1e+07u
X129 vbias2 vbias1 vbias1 VSS sky130_fd_pr__nfet_01v8_lvt ad=0p pd=0u as=0p ps=0u w=3e+06u l=4.8e+06u
X130 vop VSS sky130_fd_pr__cap_mim_m3_1 l=1e+07u w=1e+07u
X131 vfoldm vip vtail_casc VSS sky130_fd_pr__nfet_01v8_lvt ad=0p pd=0u as=0p ps=0u w=3e+06u l=1.2e+06u
X132 vbias2 ibiasn VSS VSS sky130_fd_pr__nfet_01v8 ad=0p pd=0u as=0p ps=0u w=3e+06u l=4.8e+06u
X133 vcascnp vbias4 VSS VSS sky130_fd_pr__nfet_01v8 ad=0p pd=0u as=0p ps=0u w=3e+06u l=4.8e+06u
X134 M6d M6d M6d VDD sky130_fd_pr__pfet_01v8_lvt ad=0p pd=0u as=0p ps=0u w=3e+06u l=4.8e+06u
X135 vom vbias3 vcascnm VSS sky130_fd_pr__nfet_01v8 ad=0p pd=0u as=0p ps=0u w=3e+06u l=4.8e+06u
X136 VSS vbias4 vcascnm VSS sky130_fd_pr__nfet_01v8 ad=0p pd=0u as=0p ps=0u w=3e+06u l=4.8e+06u
X137 M3d M3d vbias3 VSS sky130_fd_pr__nfet_01v8 ad=0p pd=0u as=0p ps=0u w=3e+06u l=4.8e+06u
X138 VSS vbias4 vcascnp VSS sky130_fd_pr__nfet_01v8 ad=0p pd=0u as=0p ps=0u w=3e+06u l=4.8e+06u
X139 M1d M1d M1d VDD sky130_fd_pr__pfet_01v8_lvt ad=0p pd=0u as=0p ps=0u w=3e+06u l=4.8e+06u
X140 vbias4 vbias3 a_4604_n20952# VSS sky130_fd_pr__nfet_01v8 ad=0p pd=0u as=0p ps=0u w=3e+06u l=4.8e+06u
X141 a_4604_n20952# vbias4 VSS VSS sky130_fd_pr__nfet_01v8 ad=0p pd=0u as=0p ps=0u w=3e+06u l=4.8e+06u
X142 ibiasn ibiasn VSS VSS sky130_fd_pr__nfet_01v8 ad=0p pd=0u as=0p ps=0u w=3e+06u l=4.8e+06u
X143 M6d vbias2 M13d VDD sky130_fd_pr__pfet_01v8 ad=0p pd=0u as=3.48e+12p ps=2.632e+07u w=3e+06u l=4.8e+06u
X144 vcmcn1_casc vcmcn1_casc vcmcn1_casc VDD sky130_fd_pr__pfet_01v8 ad=0p pd=0u as=0p ps=0u w=2e+06u l=800000u
X145 vbias1 vbias1 vbias2 VSS sky130_fd_pr__nfet_01v8_lvt ad=0p pd=0u as=0p ps=0u w=3e+06u l=4.8e+06u
X146 VSS VSS sky130_fd_pr__cap_mim_m3_1 l=1e+07u w=2e+06u
X147 M13d vbias2 M6d VDD sky130_fd_pr__pfet_01v8 ad=0p pd=0u as=0p ps=0u w=3e+06u l=4.8e+06u
X148 vop VSS sky130_fd_pr__cap_mim_m3_1 l=1e+07u w=1e+07u
X149 VSS vbias4 vcascnp VSS sky130_fd_pr__nfet_01v8 ad=0p pd=0u as=0p ps=0u w=3e+06u l=4.8e+06u
X150 vcmn_casc_tail2 ibiasn VSS VSS sky130_fd_pr__nfet_01v8 ad=0p pd=0u as=0p ps=0u w=3e+06u l=4.8e+06u
X151 VSS vbias4 vtail_casc VSS sky130_fd_pr__nfet_01v8 ad=0p pd=0u as=0p ps=0u w=3e+06u l=4.8e+06u
X152 VSS vbias4 vtail_casc VSS sky130_fd_pr__nfet_01v8 ad=0p pd=0u as=0p ps=0u w=3e+06u l=4.8e+06u
X153 VSS VSS sky130_fd_pr__cap_mim_m3_1 l=2e+06u w=1e+07u
X154 vtail_casc vcmc_casc VSS VSS sky130_fd_pr__nfet_01v8 ad=0p pd=0u as=0p ps=0u w=3e+06u l=4.8e+06u
X155 vtail_casc vbias4 VSS VSS sky130_fd_pr__nfet_01v8 ad=0p pd=0u as=0p ps=0u w=3e+06u l=4.8e+06u
X156 vbias1 vbias1 vbias1 VSS sky130_fd_pr__nfet_01v8_lvt ad=0p pd=0u as=0p ps=0u w=3e+06u l=4.8e+06u
X157 vtail_casc vcmc_casc VSS VSS sky130_fd_pr__nfet_01v8 ad=0p pd=0u as=0p ps=0u w=3e+06u l=4.8e+06u
X158 vtail_casc vbias4 VSS VSS sky130_fd_pr__nfet_01v8 ad=0p pd=0u as=0p ps=0u w=3e+06u l=4.8e+06u
X159 vbias4 M3d vbias3 VSS sky130_fd_pr__nfet_01v8 ad=0p pd=0u as=0p ps=0u w=3e+06u l=4.8e+06u
X160 vop vbias3 vcascnp VSS sky130_fd_pr__nfet_01v8 ad=0p pd=0u as=0p ps=0u w=3e+06u l=4.8e+06u
X161 M6d vbias1 VDD VDD sky130_fd_pr__pfet_01v8_lvt ad=0p pd=0u as=0p ps=0u w=3e+06u l=4.8e+06u
X162 VSS vcmc_casc vcmc_casc VSS sky130_fd_pr__nfet_01v8 ad=0p pd=0u as=0p ps=0u w=3e+06u l=4.8e+06u
X163 M6d vbias1 VDD VDD sky130_fd_pr__pfet_01v8_lvt ad=0p pd=0u as=0p ps=0u w=3e+06u l=4.8e+06u
X164 M1d vbias1 VDD VDD sky130_fd_pr__pfet_01v8_lvt ad=0p pd=0u as=0p ps=0u w=3e+06u l=4.8e+06u
X165 VSS ibiasn ibiasn VSS sky130_fd_pr__nfet_01v8 ad=0p pd=0u as=0p ps=0u w=3e+06u l=4.8e+06u
X166 vfoldp vim vtail_casc VSS sky130_fd_pr__nfet_01v8_lvt ad=0p pd=0u as=0p ps=0u w=3e+06u l=1.2e+06u
X167 VSS VSS sky130_fd_pr__cap_mim_m3_1 l=1e+07u w=2e+06u
X168 VSS vbias4 vcascnm VSS sky130_fd_pr__nfet_01v8 ad=0p pd=0u as=0p ps=0u w=3e+06u l=4.8e+06u
X169 M2d vbias1 VDD VDD sky130_fd_pr__pfet_01v8_lvt ad=0p pd=0u as=0p ps=0u w=3e+06u l=4.8e+06u
X170 vom vbias2 vfoldm VDD sky130_fd_pr__pfet_01v8 ad=0p pd=0u as=0p ps=0u w=3e+06u l=4.8e+06u
X171 vcmcn2_casc vocm vcmn_casc_tail2 VSS sky130_fd_pr__nfet_01v8_lvt ad=5.8e+11p pd=5.16e+06u as=0p ps=0u w=1e+06u l=800000u
X172 M2d vbias1 VDD VDD sky130_fd_pr__pfet_01v8_lvt ad=0p pd=0u as=0p ps=0u w=3e+06u l=4.8e+06u
X173 VSS vbias4 vcascnm VSS sky130_fd_pr__nfet_01v8 ad=0p pd=0u as=0p ps=0u w=3e+06u l=4.8e+06u
X174 vop vbias2 vfoldp VDD sky130_fd_pr__pfet_01v8 ad=0p pd=0u as=0p ps=0u w=3e+06u l=4.8e+06u
X175 vtail_casc vtail_casc vtail_casc VSS sky130_fd_pr__nfet_01v8_lvt ad=0p pd=0u as=0p ps=0u w=3e+06u l=1.2e+06u
X176 M1d vbias2 vbias1 VDD sky130_fd_pr__pfet_01v8 ad=0p pd=0u as=0p ps=0u w=3e+06u l=4.8e+06u
X177 a_4604_n20952# vbias4 VSS VSS sky130_fd_pr__nfet_01v8 ad=0p pd=0u as=0p ps=0u w=3e+06u l=4.8e+06u
X178 M3d M3d vbias3 VSS sky130_fd_pr__nfet_01v8 ad=0p pd=0u as=0p ps=0u w=3e+06u l=4.8e+06u
X179 VSS ibiasn vcmn_casc_tail2 VSS sky130_fd_pr__nfet_01v8 ad=0p pd=0u as=0p ps=0u w=3e+06u l=4.8e+06u
X180 vom vbias3 vcascnm VSS sky130_fd_pr__nfet_01v8 ad=0p pd=0u as=0p ps=0u w=3e+06u l=4.8e+06u
X181 VDD VDD VDD VDD sky130_fd_pr__pfet_01v8 ad=0p pd=0u as=0p ps=0u w=3e+06u l=4.8e+06u
X182 VSS vcmc_casc vcmc_casc VSS sky130_fd_pr__nfet_01v8 ad=0p pd=0u as=0p ps=0u w=3e+06u l=4.8e+06u
X183 vcmcn1_casc vcmcn1_casc VDD VDD sky130_fd_pr__pfet_01v8 ad=0p pd=0u as=0p ps=0u w=2e+06u l=800000u
X184 vop VSS sky130_fd_pr__cap_mim_m3_1 l=1e+07u w=1e+07u
X185 VSS VSS sky130_fd_pr__cap_mim_m3_1 l=2e+06u w=2e+06u
X186 VSS vbias4 vcascnm VSS sky130_fd_pr__nfet_01v8 ad=0p pd=0u as=0p ps=0u w=3e+06u l=4.8e+06u
X187 M3d M3d vbias3 VSS sky130_fd_pr__nfet_01v8 ad=0p pd=0u as=0p ps=0u w=3e+06u l=4.8e+06u
X188 vop VSS sky130_fd_pr__cap_mim_m3_1 l=1e+07u w=1e+07u
X189 vbias2 vbias1 vbias1 VSS sky130_fd_pr__nfet_01v8_lvt ad=0p pd=0u as=0p ps=0u w=3e+06u l=4.8e+06u
X190 VSS vbias4 a_4604_n20952# VSS sky130_fd_pr__nfet_01v8 ad=0p pd=0u as=0p ps=0u w=3e+06u l=4.8e+06u
X191 vbias1 vbias1 vbias2 VSS sky130_fd_pr__nfet_01v8_lvt ad=0p pd=0u as=0p ps=0u w=3e+06u l=4.8e+06u
X192 vcascnp vbias4 VSS VSS sky130_fd_pr__nfet_01v8 ad=0p pd=0u as=0p ps=0u w=3e+06u l=4.8e+06u
X193 vop vbias3 vcascnp VSS sky130_fd_pr__nfet_01v8 ad=0p pd=0u as=0p ps=0u w=3e+06u l=4.8e+06u
X194 M3d M3d vbias3 VSS sky130_fd_pr__nfet_01v8 ad=0p pd=0u as=0p ps=0u w=3e+06u l=4.8e+06u
X195 M2d vbias1 VDD VDD sky130_fd_pr__pfet_01v8_lvt ad=0p pd=0u as=0p ps=0u w=3e+06u l=4.8e+06u
X196 vbias3 M3d M3d VSS sky130_fd_pr__nfet_01v8 ad=0p pd=0u as=0p ps=0u w=3e+06u l=4.8e+06u
X197 vfoldp vbias1 VDD VDD sky130_fd_pr__pfet_01v8_lvt ad=0p pd=0u as=0p ps=0u w=3e+06u l=4.8e+06u
X198 vtail_casc vim vfoldp VSS sky130_fd_pr__nfet_01v8_lvt ad=0p pd=0u as=0p ps=0u w=3e+06u l=1.2e+06u
X199 VSS VSS M3d VSS sky130_fd_pr__nfet_01v8 ad=0p pd=0u as=0p ps=0u w=3e+06u l=4.8e+06u
X200 vfoldm vbias1 VDD VDD sky130_fd_pr__pfet_01v8_lvt ad=0p pd=0u as=0p ps=0u w=3e+06u l=4.8e+06u
X201 VSS VSS sky130_fd_pr__cap_mim_m3_1 l=1e+07u w=2e+06u
X202 vtail_casc vim vfoldp VSS sky130_fd_pr__nfet_01v8_lvt ad=0p pd=0u as=0p ps=0u w=3e+06u l=1.2e+06u
X203 vcmcn_casc vcmcn_casc vcmcn_casc VSS sky130_fd_pr__nfet_01v8_lvt ad=0p pd=0u as=0p ps=0u w=1e+06u l=800000u
X204 M3d VDD VDD VDD sky130_fd_pr__pfet_01v8 ad=0p pd=0u as=0p ps=0u w=3e+06u l=4.8e+06u
X205 vbias1 vbias1 vbias2 VSS sky130_fd_pr__nfet_01v8_lvt ad=0p pd=0u as=0p ps=0u w=3e+06u l=4.8e+06u
X206 VDD vcmcn_casc vcmcn_casc VDD sky130_fd_pr__pfet_01v8 ad=0p pd=0u as=0p ps=0u w=2e+06u l=800000u
X207 vop vbias3 vcascnp VSS sky130_fd_pr__nfet_01v8 ad=0p pd=0u as=0p ps=0u w=3e+06u l=4.8e+06u
X208 vbias1 vbias1 vbias2 VSS sky130_fd_pr__nfet_01v8_lvt ad=0p pd=0u as=0p ps=0u w=3e+06u l=4.8e+06u
X209 M13d vbias2 M6d VDD sky130_fd_pr__pfet_01v8 ad=0p pd=0u as=0p ps=0u w=3e+06u l=4.8e+06u
X210 VSS vbias4 vcascnp VSS sky130_fd_pr__nfet_01v8 ad=0p pd=0u as=0p ps=0u w=3e+06u l=4.8e+06u
X211 vcascnm vbias3 vom VSS sky130_fd_pr__nfet_01v8 ad=0p pd=0u as=0p ps=0u w=3e+06u l=4.8e+06u
X212 vfoldm vbias1 VDD VDD sky130_fd_pr__pfet_01v8_lvt ad=0p pd=0u as=0p ps=0u w=3e+06u l=4.8e+06u
X213 vbias2 vbias2 vbias2 VSS sky130_fd_pr__nfet_01v8_lvt ad=0p pd=0u as=0p ps=0u w=3e+06u l=4.8e+06u
X214 M6d vbias2 M13d VDD sky130_fd_pr__pfet_01v8 ad=0p pd=0u as=0p ps=0u w=3e+06u l=4.8e+06u
X215 vcmcn_casc vom vcmn_casc_tail2 VSS sky130_fd_pr__nfet_01v8_lvt ad=0p pd=0u as=0p ps=0u w=1e+06u l=800000u
X216 vbias2 vbias1 vbias1 VSS sky130_fd_pr__nfet_01v8_lvt ad=0p pd=0u as=0p ps=0u w=3e+06u l=4.8e+06u
X217 M3d M3d vbias3 VSS sky130_fd_pr__nfet_01v8 ad=0p pd=0u as=0p ps=0u w=3e+06u l=4.8e+06u
X218 vcmn_casc_tail2 vom vcmcn_casc VSS sky130_fd_pr__nfet_01v8_lvt ad=0p pd=0u as=0p ps=0u w=1e+06u l=800000u
X219 M2d vbias2 M3d VDD sky130_fd_pr__pfet_01v8 ad=0p pd=0u as=0p ps=0u w=3e+06u l=4.8e+06u
X220 vbias4 vbias3 a_4604_n20952# VSS sky130_fd_pr__nfet_01v8 ad=0p pd=0u as=0p ps=0u w=3e+06u l=4.8e+06u
X221 vbias1 vbias1 vbias2 VSS sky130_fd_pr__nfet_01v8_lvt ad=0p pd=0u as=0p ps=0u w=3e+06u l=4.8e+06u
X222 VDD vbias1 M6d VDD sky130_fd_pr__pfet_01v8_lvt ad=0p pd=0u as=0p ps=0u w=3e+06u l=4.8e+06u
X223 VSS vbias4 vcascnp VSS sky130_fd_pr__nfet_01v8 ad=0p pd=0u as=0p ps=0u w=3e+06u l=4.8e+06u
X224 VDD vbias1 M2d VDD sky130_fd_pr__pfet_01v8_lvt ad=0p pd=0u as=0p ps=0u w=3e+06u l=4.8e+06u
X225 VDD vcmcn_casc vcmcn_casc VDD sky130_fd_pr__pfet_01v8 ad=0p pd=0u as=0p ps=0u w=2e+06u l=800000u
X226 M3d M3d vbias3 VSS sky130_fd_pr__nfet_01v8 ad=0p pd=0u as=0p ps=0u w=3e+06u l=4.8e+06u
X227 vbias1 vbias1 vbias2 VSS sky130_fd_pr__nfet_01v8_lvt ad=0p pd=0u as=0p ps=0u w=3e+06u l=4.8e+06u
X228 vcascnm vbias4 VSS VSS sky130_fd_pr__nfet_01v8 ad=0p pd=0u as=0p ps=0u w=3e+06u l=4.8e+06u
X229 vbias3 M3d M3d VSS sky130_fd_pr__nfet_01v8 ad=0p pd=0u as=0p ps=0u w=3e+06u l=4.8e+06u
X230 vbias3 M3d M3d VSS sky130_fd_pr__nfet_01v8 ad=0p pd=0u as=0p ps=0u w=3e+06u l=4.8e+06u
X231 vbias4 vbias3 a_4604_n20952# VSS sky130_fd_pr__nfet_01v8 ad=0p pd=0u as=0p ps=0u w=3e+06u l=4.8e+06u
X232 VSS VSS sky130_fd_pr__cap_mim_m3_1 l=2e+06u w=1e+07u
X233 vcmcn1_casc vcmcn1_casc VDD VDD sky130_fd_pr__pfet_01v8 ad=0p pd=0u as=0p ps=0u w=2e+06u l=800000u
X234 vcascnp vbias3 vop VSS sky130_fd_pr__nfet_01v8 ad=0p pd=0u as=0p ps=0u w=3e+06u l=4.8e+06u
X235 VSS VSS VSS VSS sky130_fd_pr__nfet_01v8 ad=0p pd=0u as=0p ps=0u w=3e+06u l=4.8e+06u
X236 vfoldm vbias2 vom VDD sky130_fd_pr__pfet_01v8 ad=0p pd=0u as=0p ps=0u w=3e+06u l=4.8e+06u
X237 vbias2 vbias1 vbias1 VSS sky130_fd_pr__nfet_01v8_lvt ad=0p pd=0u as=0p ps=0u w=3e+06u l=4.8e+06u
X238 a_4604_n20952# vbias3 vbias4 VSS sky130_fd_pr__nfet_01v8 ad=0p pd=0u as=0p ps=0u w=3e+06u l=4.8e+06u
X239 vfoldp vbias2 vop VDD sky130_fd_pr__pfet_01v8 ad=0p pd=0u as=0p ps=0u w=3e+06u l=4.8e+06u
X240 vbias1 vbias1 vbias2 VSS sky130_fd_pr__nfet_01v8_lvt ad=0p pd=0u as=0p ps=0u w=3e+06u l=4.8e+06u
X241 vcmcn_casc vcmcn_casc vcmcn_casc VDD sky130_fd_pr__pfet_01v8 ad=0p pd=0u as=0p ps=0u w=2e+06u l=800000u
X242 vtail_casc vim vfoldp VSS sky130_fd_pr__nfet_01v8_lvt ad=0p pd=0u as=0p ps=0u w=3e+06u l=1.2e+06u
X243 vom vbias3 vcascnm VSS sky130_fd_pr__nfet_01v8 ad=0p pd=0u as=0p ps=0u w=3e+06u l=4.8e+06u
X244 vbias1 vbias1 vbias2 VSS sky130_fd_pr__nfet_01v8_lvt ad=0p pd=0u as=0p ps=0u w=3e+06u l=4.8e+06u
X245 vtail_casc vim vfoldp VSS sky130_fd_pr__nfet_01v8_lvt ad=0p pd=0u as=0p ps=0u w=3e+06u l=1.2e+06u
X246 vtail_casc vbias4 VSS VSS sky130_fd_pr__nfet_01v8 ad=0p pd=0u as=0p ps=0u w=3e+06u l=4.8e+06u
X247 vfoldp vbias2 vop VDD sky130_fd_pr__pfet_01v8 ad=0p pd=0u as=0p ps=0u w=3e+06u l=4.8e+06u
X248 VSS vbias4 vtail_casc VSS sky130_fd_pr__nfet_01v8 ad=0p pd=0u as=0p ps=0u w=3e+06u l=4.8e+06u
X249 a_4604_n20952# vbias4 VSS VSS sky130_fd_pr__nfet_01v8 ad=0p pd=0u as=0p ps=0u w=3e+06u l=4.8e+06u
X250 VSS vbias4 vtail_casc VSS sky130_fd_pr__nfet_01v8 ad=0p pd=0u as=0p ps=0u w=3e+06u l=4.8e+06u
X251 vbias1 vbias1 vbias2 VSS sky130_fd_pr__nfet_01v8_lvt ad=0p pd=0u as=0p ps=0u w=3e+06u l=4.8e+06u
X252 vfoldm vbias2 vom VDD sky130_fd_pr__pfet_01v8 ad=0p pd=0u as=0p ps=0u w=3e+06u l=4.8e+06u
X253 vcascnp vbias3 vop VSS sky130_fd_pr__nfet_01v8 ad=0p pd=0u as=0p ps=0u w=3e+06u l=4.8e+06u
X254 vtail_casc vip vfoldm VSS sky130_fd_pr__nfet_01v8_lvt ad=0p pd=0u as=0p ps=0u w=3e+06u l=1.2e+06u
X255 vtail_casc vtail_casc vtail_casc VSS sky130_fd_pr__nfet_01v8 ad=0p pd=0u as=0p ps=0u w=3e+06u l=4.8e+06u
X256 vtail_casc vtail_casc vtail_casc VSS sky130_fd_pr__nfet_01v8 ad=0p pd=0u as=0p ps=0u w=3e+06u l=4.8e+06u
X257 VDD vbias1 M1d VDD sky130_fd_pr__pfet_01v8_lvt ad=0p pd=0u as=0p ps=0u w=3e+06u l=4.8e+06u
X258 vcmn_casc_tail2 vocm vcmcn2_casc VSS sky130_fd_pr__nfet_01v8_lvt ad=0p pd=0u as=0p ps=0u w=1e+06u l=800000u
X259 vbias1 vbias1 vbias2 VSS sky130_fd_pr__nfet_01v8_lvt ad=0p pd=0u as=0p ps=0u w=3e+06u l=4.8e+06u
X260 VSS VSS sky130_fd_pr__cap_mim_m3_1 l=2e+06u w=1e+07u
X261 VSS vcmc_casc vcmc_casc VSS sky130_fd_pr__nfet_01v8 ad=0p pd=0u as=0p ps=0u w=3e+06u l=4.8e+06u
X262 VSS vcmc_casc vcmc_casc VSS sky130_fd_pr__nfet_01v8 ad=0p pd=0u as=0p ps=0u w=3e+06u l=4.8e+06u
X263 vtail_casc vim vfoldp VSS sky130_fd_pr__nfet_01v8_lvt ad=0p pd=0u as=0p ps=0u w=3e+06u l=1.2e+06u
X264 VSS VSS sky130_fd_pr__cap_mim_m3_1 l=1e+07u w=2e+06u
X265 vtail_casc vcmc_casc VSS VSS sky130_fd_pr__nfet_01v8 ad=0p pd=0u as=0p ps=0u w=3e+06u l=4.8e+06u
X266 vbias1 vbias1 vbias2 VSS sky130_fd_pr__nfet_01v8_lvt ad=0p pd=0u as=0p ps=0u w=3e+06u l=4.8e+06u
X267 vbias1 vbias1 vbias2 VSS sky130_fd_pr__nfet_01v8_lvt ad=0p pd=0u as=0p ps=0u w=3e+06u l=4.8e+06u
X268 vcmcn1_casc vocm vcmn_casc_tail1 VSS sky130_fd_pr__nfet_01v8_lvt ad=0p pd=0u as=0p ps=0u w=1e+06u l=800000u
X269 VSS vcmc_casc vtail_casc VSS sky130_fd_pr__nfet_01v8 ad=0p pd=0u as=0p ps=0u w=3e+06u l=4.8e+06u
X270 vcascnm vbias3 vom VSS sky130_fd_pr__nfet_01v8 ad=0p pd=0u as=0p ps=0u w=3e+06u l=4.8e+06u
X271 VSS vcmc_casc vtail_casc VSS sky130_fd_pr__nfet_01v8 ad=0p pd=0u as=0p ps=0u w=3e+06u l=4.8e+06u
X272 vcmcn_casc vcmcn_casc VDD VDD sky130_fd_pr__pfet_01v8 ad=0p pd=0u as=0p ps=0u w=2e+06u l=800000u
X273 M6d vbias2 M13d VDD sky130_fd_pr__pfet_01v8 ad=0p pd=0u as=0p ps=0u w=3e+06u l=4.8e+06u
X274 vcascnm vbias4 VSS VSS sky130_fd_pr__nfet_01v8 ad=0p pd=0u as=0p ps=0u w=3e+06u l=4.8e+06u
X275 vbias3 M3d M3d VSS sky130_fd_pr__nfet_01v8 ad=0p pd=0u as=0p ps=0u w=3e+06u l=4.8e+06u
X276 vop vbias3 vcascnp VSS sky130_fd_pr__nfet_01v8 ad=0p pd=0u as=0p ps=0u w=3e+06u l=4.8e+06u
X277 M13d vbias2 M6d VDD sky130_fd_pr__pfet_01v8 ad=0p pd=0u as=0p ps=0u w=3e+06u l=4.8e+06u
X278 vbias1 vbias1 vbias1 VSS sky130_fd_pr__nfet_01v8_lvt ad=0p pd=0u as=0p ps=0u w=3e+06u l=4.8e+06u
X279 VSS vcmc_casc vcmc_casc VSS sky130_fd_pr__nfet_01v8 ad=0p pd=0u as=0p ps=0u w=3e+06u l=4.8e+06u
X280 vbias1 vbias1 vbias2 VSS sky130_fd_pr__nfet_01v8_lvt ad=0p pd=0u as=0p ps=0u w=3e+06u l=4.8e+06u
X281 M2d M2d M2d VDD sky130_fd_pr__pfet_01v8 ad=0p pd=0u as=0p ps=0u w=3e+06u l=4.8e+06u
X282 vom VSS sky130_fd_pr__cap_mim_m3_1 l=1e+07u w=1e+07u
X283 vbias4 VSS VSS VSS sky130_fd_pr__nfet_01v8 ad=0p pd=0u as=0p ps=0u w=3e+06u l=4.8e+06u
X284 M3d M3d vbias3 VSS sky130_fd_pr__nfet_01v8 ad=0p pd=0u as=0p ps=0u w=3e+06u l=4.8e+06u
X285 vfoldm vip vtail_casc VSS sky130_fd_pr__nfet_01v8_lvt ad=0p pd=0u as=0p ps=0u w=3e+06u l=1.2e+06u
X286 vcascnp vbias3 vop VSS sky130_fd_pr__nfet_01v8 ad=0p pd=0u as=0p ps=0u w=3e+06u l=4.8e+06u
X287 vcmcn_casc vcmcn_casc VDD VDD sky130_fd_pr__pfet_01v8 ad=0p pd=0u as=0p ps=0u w=2e+06u l=800000u
X288 VSS VSS sky130_fd_pr__cap_mim_m3_1 l=2e+06u w=1e+07u
X289 vtail_casc vip vfoldm VSS sky130_fd_pr__nfet_01v8_lvt ad=0p pd=0u as=0p ps=0u w=3e+06u l=1.2e+06u
X290 a_4604_n20952# vbias4 VSS VSS sky130_fd_pr__nfet_01v8 ad=0p pd=0u as=0p ps=0u w=3e+06u l=4.8e+06u
X291 M3d vbias2 M2d VDD sky130_fd_pr__pfet_01v8 ad=0p pd=0u as=0p ps=0u w=3e+06u l=4.8e+06u
X292 vom vbias3 vcascnm VSS sky130_fd_pr__nfet_01v8 ad=0p pd=0u as=0p ps=0u w=3e+06u l=4.8e+06u
X293 M2d M2d M2d VDD sky130_fd_pr__pfet_01v8_lvt ad=0p pd=0u as=0p ps=0u w=3e+06u l=4.8e+06u
X294 VSS VSS sky130_fd_pr__cap_mim_m3_1 l=1e+07u w=2e+06u
X295 vcmcn2_casc vcmcn2_casc VDD VDD sky130_fd_pr__pfet_01v8 ad=0p pd=0u as=0p ps=0u w=2e+06u l=800000u
X296 vbias3 M3d M3d VSS sky130_fd_pr__nfet_01v8 ad=0p pd=0u as=0p ps=0u w=3e+06u l=4.8e+06u
X297 vfoldm vip vtail_casc VSS sky130_fd_pr__nfet_01v8_lvt ad=0p pd=0u as=0p ps=0u w=3e+06u l=1.2e+06u
X298 M3d M3d vbias3 VSS sky130_fd_pr__nfet_01v8 ad=0p pd=0u as=0p ps=0u w=3e+06u l=4.8e+06u
X299 vom vom vom VSS sky130_fd_pr__nfet_01v8 ad=0p pd=0u as=0p ps=0u w=3e+06u l=4.8e+06u
X300 VDD vcmcn_casc vcmc_casc VDD sky130_fd_pr__pfet_01v8 ad=0p pd=0u as=0p ps=0u w=2e+06u l=800000u
X301 a_4604_n20952# vbias3 vbias4 VSS sky130_fd_pr__nfet_01v8 ad=0p pd=0u as=0p ps=0u w=3e+06u l=4.8e+06u
X302 VSS vbias4 a_4604_n20952# VSS sky130_fd_pr__nfet_01v8 ad=0p pd=0u as=0p ps=0u w=3e+06u l=4.8e+06u
X303 VSS vbias4 vcascnp VSS sky130_fd_pr__nfet_01v8 ad=0p pd=0u as=0p ps=0u w=3e+06u l=4.8e+06u
X304 a_4604_n20952# vbias3 vbias4 VSS sky130_fd_pr__nfet_01v8 ad=0p pd=0u as=0p ps=0u w=3e+06u l=4.8e+06u
X305 VDD VDD vfoldp VDD sky130_fd_pr__pfet_01v8 ad=0p pd=0u as=0p ps=0u w=3e+06u l=4.8e+06u
X306 VDD vbias1 M1d VDD sky130_fd_pr__pfet_01v8_lvt ad=0p pd=0u as=0p ps=0u w=3e+06u l=4.8e+06u