* NGSPICE file created from user_analog_project_wrapper_ext.ext - technology: sky130A

.subckt sky130_fd_pr__nfet_g5v0d10v5_ZGGKXL VSUBS a_n287_n555# a_n819_n500# a_1551_n500#
+ a_187_n555# a_n129_n555# a_29_n555# a_n187_n500# a_1393_n500# a_n29_n500# a_761_n500#
+ a_1235_n500# a_603_n500# a_1451_n555# a_1077_n500# a_n1551_n555# a_445_n500# a_n761_n555#
+ a_1293_n555# a_919_n500# a_n1451_n500# a_661_n555# a_n1393_n555# a_n603_n555# a_1135_n555#
+ a_n661_n500# a_287_n500# a_n1235_n555# a_503_n555# a_n1293_n500# a_129_n500# a_n503_n500#
+ a_n445_n555# a_977_n555# a_n919_n555# a_n977_n500# a_n1135_n500# a_n1077_n555# a_345_n555#
+ a_n1609_n500# a_819_n555# a_n345_n500#
X0 a_n819_n500# a_n919_n555# a_n977_n500# VSUBS sky130_fd_pr__nfet_g5v0d10v5 ad=0p pd=0u as=0p ps=0u w=5e+06u l=500000u
X1 a_n661_n500# a_n761_n555# a_n819_n500# VSUBS sky130_fd_pr__nfet_g5v0d10v5 ad=0p pd=0u as=0p ps=0u w=5e+06u l=500000u
X2 a_919_n500# a_819_n555# a_761_n500# VSUBS sky130_fd_pr__nfet_g5v0d10v5 ad=0p pd=0u as=0p ps=0u w=5e+06u l=500000u
X3 a_n187_n500# a_n287_n555# a_n345_n500# VSUBS sky130_fd_pr__nfet_g5v0d10v5 ad=0p pd=0u as=0p ps=0u w=5e+06u l=500000u
X4 a_761_n500# a_661_n555# a_603_n500# VSUBS sky130_fd_pr__nfet_g5v0d10v5 ad=0p pd=0u as=0p ps=0u w=5e+06u l=500000u
X5 a_287_n500# a_187_n555# a_129_n500# VSUBS sky130_fd_pr__nfet_g5v0d10v5 ad=0p pd=0u as=0p ps=0u w=5e+06u l=500000u
X6 a_n1293_n500# a_n1393_n555# a_n1451_n500# VSUBS sky130_fd_pr__nfet_g5v0d10v5 ad=0p pd=0u as=0p ps=0u w=5e+06u l=500000u
X7 a_1393_n500# a_1293_n555# a_1235_n500# VSUBS sky130_fd_pr__nfet_g5v0d10v5 ad=0p pd=0u as=0p ps=0u w=5e+06u l=500000u
X8 a_n345_n500# a_n445_n555# a_n503_n500# VSUBS sky130_fd_pr__nfet_g5v0d10v5 ad=0p pd=0u as=0p ps=0u w=5e+06u l=500000u
X9 a_129_n500# a_29_n555# a_n29_n500# VSUBS sky130_fd_pr__nfet_g5v0d10v5 ad=0p pd=0u as=0p ps=0u w=5e+06u l=500000u
X10 a_445_n500# a_345_n555# a_287_n500# VSUBS sky130_fd_pr__nfet_g5v0d10v5 ad=0p pd=0u as=0p ps=0u w=5e+06u l=500000u
X11 a_n1451_n500# a_n1551_n555# a_n1609_n500# VSUBS sky130_fd_pr__nfet_g5v0d10v5 ad=0p pd=0u as=0p ps=0u w=5e+06u l=500000u
X12 a_1551_n500# a_1451_n555# a_1393_n500# VSUBS sky130_fd_pr__nfet_g5v0d10v5 ad=0p pd=0u as=0p ps=0u w=5e+06u l=500000u
X13 a_n977_n500# a_n1077_n555# a_n1135_n500# VSUBS sky130_fd_pr__nfet_g5v0d10v5 ad=0p pd=0u as=0p ps=0u w=5e+06u l=500000u
X14 a_n503_n500# a_n603_n555# a_n661_n500# VSUBS sky130_fd_pr__nfet_g5v0d10v5 ad=0p pd=0u as=0p ps=0u w=5e+06u l=500000u
X15 a_1077_n500# a_977_n555# a_919_n500# VSUBS sky130_fd_pr__nfet_g5v0d10v5 ad=0p pd=0u as=0p ps=0u w=5e+06u l=500000u
X16 a_n29_n500# a_n129_n555# a_n187_n500# VSUBS sky130_fd_pr__nfet_g5v0d10v5 ad=0p pd=0u as=0p ps=0u w=5e+06u l=500000u
X17 a_603_n500# a_503_n555# a_445_n500# VSUBS sky130_fd_pr__nfet_g5v0d10v5 ad=0p pd=0u as=0p ps=0u w=5e+06u l=500000u
X18 a_n1135_n500# a_n1235_n555# a_n1293_n500# VSUBS sky130_fd_pr__nfet_g5v0d10v5 ad=0p pd=0u as=0p ps=0u w=5e+06u l=500000u
X19 a_1235_n500# a_1135_n555# a_1077_n500# VSUBS sky130_fd_pr__nfet_g5v0d10v5 ad=0p pd=0u as=0p ps=0u w=5e+06u l=500000u
.ends

.subckt sky130_fd_pr__pfet_g5v0d10v5_Q5DL9H VSUBS a_n1551_n564# a_n819_n500# a_1551_n500#
+ a_n761_n564# a_1293_n564# a_661_n564# a_n187_n500# a_n1393_n564# a_n603_n564# a_1135_n564#
+ a_1393_n500# a_n29_n500# a_503_n564# a_761_n500# a_n1235_n564# a_1235_n500# a_n445_n564#
+ a_977_n564# a_n919_n564# a_603_n500# a_345_n564# a_n1077_n564# a_819_n564# a_1077_n500#
+ a_n287_n564# a_445_n500# a_187_n564# a_919_n500# a_n129_n564# a_29_n564# a_n1451_n500#
+ w_n1645_n600# a_n661_n500# a_287_n500# a_n1293_n500# a_129_n500# a_n503_n500# a_n977_n500#
+ a_1451_n564# a_n1135_n500# a_n1609_n500# a_n345_n500#
X0 a_n819_n500# a_n919_n564# a_n977_n500# w_n1645_n600# sky130_fd_pr__pfet_g5v0d10v5 ad=0p pd=0u as=0p ps=0u w=5e+06u l=500000u
X1 a_n661_n500# a_n761_n564# a_n819_n500# w_n1645_n600# sky130_fd_pr__pfet_g5v0d10v5 ad=0p pd=0u as=0p ps=0u w=5e+06u l=500000u
X2 a_919_n500# a_819_n564# a_761_n500# w_n1645_n600# sky130_fd_pr__pfet_g5v0d10v5 ad=0p pd=0u as=0p ps=0u w=5e+06u l=500000u
X3 a_n187_n500# a_n287_n564# a_n345_n500# w_n1645_n600# sky130_fd_pr__pfet_g5v0d10v5 ad=0p pd=0u as=0p ps=0u w=5e+06u l=500000u
X4 a_761_n500# a_661_n564# a_603_n500# w_n1645_n600# sky130_fd_pr__pfet_g5v0d10v5 ad=0p pd=0u as=0p ps=0u w=5e+06u l=500000u
X5 a_287_n500# a_187_n564# a_129_n500# w_n1645_n600# sky130_fd_pr__pfet_g5v0d10v5 ad=0p pd=0u as=0p ps=0u w=5e+06u l=500000u
X6 a_n1293_n500# a_n1393_n564# a_n1451_n500# w_n1645_n600# sky130_fd_pr__pfet_g5v0d10v5 ad=0p pd=0u as=0p ps=0u w=5e+06u l=500000u
X7 a_1393_n500# a_1293_n564# a_1235_n500# w_n1645_n600# sky130_fd_pr__pfet_g5v0d10v5 ad=0p pd=0u as=0p ps=0u w=5e+06u l=500000u
X8 a_n345_n500# a_n445_n564# a_n503_n500# w_n1645_n600# sky130_fd_pr__pfet_g5v0d10v5 ad=0p pd=0u as=0p ps=0u w=5e+06u l=500000u
X9 a_129_n500# a_29_n564# a_n29_n500# w_n1645_n600# sky130_fd_pr__pfet_g5v0d10v5 ad=0p pd=0u as=0p ps=0u w=5e+06u l=500000u
X10 a_445_n500# a_345_n564# a_287_n500# w_n1645_n600# sky130_fd_pr__pfet_g5v0d10v5 ad=0p pd=0u as=0p ps=0u w=5e+06u l=500000u
X11 a_n1451_n500# a_n1551_n564# a_n1609_n500# w_n1645_n600# sky130_fd_pr__pfet_g5v0d10v5 ad=0p pd=0u as=0p ps=0u w=5e+06u l=500000u
X12 a_1551_n500# a_1451_n564# a_1393_n500# w_n1645_n600# sky130_fd_pr__pfet_g5v0d10v5 ad=0p pd=0u as=0p ps=0u w=5e+06u l=500000u
X13 a_n977_n500# a_n1077_n564# a_n1135_n500# w_n1645_n600# sky130_fd_pr__pfet_g5v0d10v5 ad=0p pd=0u as=0p ps=0u w=5e+06u l=500000u
X14 a_n503_n500# a_n603_n564# a_n661_n500# w_n1645_n600# sky130_fd_pr__pfet_g5v0d10v5 ad=0p pd=0u as=0p ps=0u w=5e+06u l=500000u
X15 a_1077_n500# a_977_n564# a_919_n500# w_n1645_n600# sky130_fd_pr__pfet_g5v0d10v5 ad=0p pd=0u as=0p ps=0u w=5e+06u l=500000u
X16 a_n29_n500# a_n129_n564# a_n187_n500# w_n1645_n600# sky130_fd_pr__pfet_g5v0d10v5 ad=0p pd=0u as=0p ps=0u w=5e+06u l=500000u
X17 a_603_n500# a_503_n564# a_445_n500# w_n1645_n600# sky130_fd_pr__pfet_g5v0d10v5 ad=0p pd=0u as=0p ps=0u w=5e+06u l=500000u
X18 a_n1135_n500# a_n1235_n564# a_n1293_n500# w_n1645_n600# sky130_fd_pr__pfet_g5v0d10v5 ad=0p pd=0u as=0p ps=0u w=5e+06u l=500000u
X19 a_1235_n500# a_1135_n564# a_1077_n500# w_n1645_n600# sky130_fd_pr__pfet_g5v0d10v5 ad=0p pd=0u as=0p ps=0u w=5e+06u l=500000u
.ends

.subckt esd_cell VSS VDD clamp
Xxm1 VSS VSS clamp VSS VSS VSS VSS clamp clamp VSS clamp VSS VSS VSS clamp VSS clamp
+ VSS VSS VSS clamp VSS VSS VSS VSS VSS VSS VSS VSS VSS clamp clamp VSS VSS VSS VSS
+ clamp VSS VSS VSS VSS VSS sky130_fd_pr__nfet_g5v0d10v5_ZGGKXL
Xxm2 VSS VDD clamp VDD VDD VDD VDD clamp VDD VDD VDD clamp VDD VDD clamp VDD VDD VDD
+ VDD VDD VDD VDD VDD VDD clamp VDD clamp VDD VDD VDD VDD clamp VDD VDD VDD VDD clamp
+ clamp VDD VDD clamp VDD VDD sky130_fd_pr__pfet_g5v0d10v5_Q5DL9H
.ends

.subckt sky130_fd_sc_hd__dfxtp_1 CLK D VGND VNB VPB VPWR Q
X0 Q a_1059_315# VGND VNB sky130_fd_pr__nfet_01v8 ad=0p pd=0u as=0p ps=0u w=650000u l=150000u
X1 a_891_413# a_193_47# a_634_159# VNB sky130_fd_pr__nfet_01v8 ad=0p pd=0u as=0p ps=0u w=360000u l=150000u
X2 a_561_413# a_27_47# a_466_413# VPB sky130_fd_pr__pfet_01v8_hvt ad=0p pd=0u as=0p ps=0u w=420000u l=150000u
X3 VPWR CLK a_27_47# VPB sky130_fd_pr__pfet_01v8_hvt ad=0p pd=0u as=0p ps=0u w=640000u l=150000u
X4 Q a_1059_315# VPWR VPB sky130_fd_pr__pfet_01v8_hvt ad=0p pd=0u as=0p ps=0u w=1e+06u l=150000u
X5 a_381_47# D VPWR VPB sky130_fd_pr__pfet_01v8_hvt ad=0p pd=0u as=0p ps=0u w=420000u l=150000u
X6 VGND a_634_159# a_592_47# VNB sky130_fd_pr__nfet_01v8 ad=0p pd=0u as=0p ps=0u w=420000u l=150000u
X7 VPWR a_891_413# a_1059_315# VPB sky130_fd_pr__pfet_01v8_hvt ad=0p pd=0u as=0p ps=0u w=1e+06u l=150000u
X8 a_466_413# a_193_47# a_381_47# VPB sky130_fd_pr__pfet_01v8_hvt ad=0p pd=0u as=0p ps=0u w=420000u l=150000u
X9 VPWR a_634_159# a_561_413# VPB sky130_fd_pr__pfet_01v8_hvt ad=0p pd=0u as=0p ps=0u w=420000u l=150000u
X10 a_634_159# a_466_413# VGND VNB sky130_fd_pr__nfet_01v8 ad=0p pd=0u as=0p ps=0u w=640000u l=150000u
X11 a_634_159# a_466_413# VPWR VPB sky130_fd_pr__pfet_01v8_hvt ad=0p pd=0u as=0p ps=0u w=750000u l=150000u
X12 a_975_413# a_193_47# a_891_413# VPB sky130_fd_pr__pfet_01v8_hvt ad=0p pd=0u as=0p ps=0u w=420000u l=150000u
X13 VGND a_1059_315# a_1017_47# VNB sky130_fd_pr__nfet_01v8 ad=0p pd=0u as=0p ps=0u w=420000u l=150000u
X14 a_193_47# a_27_47# VGND VNB sky130_fd_pr__nfet_01v8 ad=0p pd=0u as=0p ps=0u w=420000u l=150000u
X15 a_891_413# a_27_47# a_634_159# VPB sky130_fd_pr__pfet_01v8_hvt ad=0p pd=0u as=0p ps=0u w=420000u l=150000u
X16 a_592_47# a_193_47# a_466_413# VNB sky130_fd_pr__nfet_01v8 ad=0p pd=0u as=0p ps=0u w=360000u l=150000u
X17 a_1017_47# a_27_47# a_891_413# VNB sky130_fd_pr__nfet_01v8 ad=0p pd=0u as=0p ps=0u w=360000u l=150000u
X18 VPWR a_1059_315# a_975_413# VPB sky130_fd_pr__pfet_01v8_hvt ad=0p pd=0u as=0p ps=0u w=420000u l=150000u
X19 a_466_413# a_27_47# a_381_47# VNB sky130_fd_pr__nfet_01v8 ad=0p pd=0u as=0p ps=0u w=360000u l=150000u
X20 a_193_47# a_27_47# VPWR VPB sky130_fd_pr__pfet_01v8_hvt ad=0p pd=0u as=0p ps=0u w=640000u l=150000u
X21 VGND a_891_413# a_1059_315# VNB sky130_fd_pr__nfet_01v8 ad=0p pd=0u as=0p ps=0u w=650000u l=150000u
X22 a_381_47# D VGND VNB sky130_fd_pr__nfet_01v8 ad=0p pd=0u as=0p ps=0u w=420000u l=150000u
X23 VGND CLK a_27_47# VNB sky130_fd_pr__nfet_01v8 ad=0p pd=0u as=0p ps=0u w=420000u l=150000u
.ends

.subckt sky130_fd_sc_hd__and2_0 A B VGND VNB VPB VPWR X
X0 VPWR B a_40_47# VPB sky130_fd_pr__pfet_01v8_hvt ad=0p pd=0u as=0p ps=0u w=420000u l=150000u
X1 X a_40_47# VPWR VPB sky130_fd_pr__pfet_01v8_hvt ad=0p pd=0u as=0p ps=0u w=640000u l=150000u
X2 VGND B a_123_47# VNB sky130_fd_pr__nfet_01v8 ad=0p pd=0u as=0p ps=0u w=420000u l=150000u
X3 X a_40_47# VGND VNB sky130_fd_pr__nfet_01v8 ad=0p pd=0u as=0p ps=0u w=420000u l=150000u
X4 a_123_47# A a_40_47# VNB sky130_fd_pr__nfet_01v8 ad=0p pd=0u as=0p ps=0u w=420000u l=150000u
X5 a_40_47# A VPWR VPB sky130_fd_pr__pfet_01v8_hvt ad=0p pd=0u as=0p ps=0u w=420000u l=150000u
.ends

.subckt sky130_fd_sc_hd__nor2b_1 A B_N VGND VNB VPB VPWR Y
X0 Y a_74_47# a_265_297# VPB sky130_fd_pr__pfet_01v8_hvt ad=0p pd=0u as=0p ps=0u w=1e+06u l=150000u
X1 VPWR B_N a_74_47# VPB sky130_fd_pr__pfet_01v8_hvt ad=0p pd=0u as=0p ps=0u w=420000u l=150000u
X2 a_265_297# A VPWR VPB sky130_fd_pr__pfet_01v8_hvt ad=0p pd=0u as=0p ps=0u w=1e+06u l=150000u
X3 Y A VGND VNB sky130_fd_pr__nfet_01v8 ad=0p pd=0u as=0p ps=0u w=650000u l=150000u
X4 VGND B_N a_74_47# VNB sky130_fd_pr__nfet_01v8 ad=0p pd=0u as=0p ps=0u w=420000u l=150000u
X5 VGND a_74_47# Y VNB sky130_fd_pr__nfet_01v8 ad=0p pd=0u as=0p ps=0u w=650000u l=150000u
.ends

.subckt sky130_fd_sc_hd__clkinv_1 A VGND VNB VPB VPWR Y
X0 Y A VPWR VPB sky130_fd_pr__pfet_01v8_hvt ad=0p pd=0u as=0p ps=0u w=840000u l=150000u
X1 VGND A Y VNB sky130_fd_pr__nfet_01v8 ad=0p pd=0u as=0p ps=0u w=420000u l=150000u
X2 VPWR A Y VPB sky130_fd_pr__pfet_01v8_hvt ad=0p pd=0u as=0p ps=0u w=840000u l=150000u
.ends

.subckt sky130_fd_sc_hd__a21oi_1 A1 A2 B1 VGND VNB VPB VPWR Y
X0 a_199_47# A1 Y VNB sky130_fd_pr__nfet_01v8 ad=0p pd=0u as=0p ps=0u w=650000u l=150000u
X1 a_113_297# A2 VPWR VPB sky130_fd_pr__pfet_01v8_hvt ad=0p pd=0u as=0p ps=0u w=1e+06u l=150000u
X2 Y B1 VGND VNB sky130_fd_pr__nfet_01v8 ad=0p pd=0u as=0p ps=0u w=650000u l=150000u
X3 VPWR A1 a_113_297# VPB sky130_fd_pr__pfet_01v8_hvt ad=0p pd=0u as=0p ps=0u w=1e+06u l=150000u
X4 a_113_297# B1 Y VPB sky130_fd_pr__pfet_01v8_hvt ad=0p pd=0u as=0p ps=0u w=1e+06u l=150000u
X5 VGND A2 a_199_47# VNB sky130_fd_pr__nfet_01v8 ad=0p pd=0u as=0p ps=0u w=650000u l=150000u
.ends

.subckt sky130_fd_sc_hd__o21ai_1 A1 A2 B1 VGND VNB VPB VPWR Y
X0 Y A2 a_109_297# VPB sky130_fd_pr__pfet_01v8_hvt ad=0p pd=0u as=0p ps=0u w=1e+06u l=150000u
X1 VPWR B1 Y VPB sky130_fd_pr__pfet_01v8_hvt ad=0p pd=0u as=0p ps=0u w=700000u l=150000u
X2 a_27_47# A2 VGND VNB sky130_fd_pr__nfet_01v8 ad=0p pd=0u as=0p ps=0u w=650000u l=150000u
X3 Y B1 a_27_47# VNB sky130_fd_pr__nfet_01v8 ad=0p pd=0u as=0p ps=0u w=650000u l=150000u
X4 a_109_297# A1 VPWR VPB sky130_fd_pr__pfet_01v8_hvt ad=0p pd=0u as=0p ps=0u w=1e+06u l=150000u
X5 VGND A1 a_27_47# VNB sky130_fd_pr__nfet_01v8 ad=0p pd=0u as=0p ps=0u w=650000u l=150000u
.ends

.subckt sky130_fd_sc_hd__clkinv_4 A VGND VNB VPB VPWR Y
X0 Y A VPWR VPB sky130_fd_pr__pfet_01v8_hvt ad=0p pd=0u as=0p ps=0u w=1e+06u l=150000u
X1 VGND A Y VNB sky130_fd_pr__nfet_01v8 ad=0p pd=0u as=0p ps=0u w=420000u l=150000u
X2 VGND A Y VNB sky130_fd_pr__nfet_01v8 ad=0p pd=0u as=0p ps=0u w=420000u l=150000u
X3 VPWR A Y VPB sky130_fd_pr__pfet_01v8_hvt ad=0p pd=0u as=0p ps=0u w=1e+06u l=150000u
X4 VPWR A Y VPB sky130_fd_pr__pfet_01v8_hvt ad=0p pd=0u as=0p ps=0u w=1e+06u l=150000u
X5 Y A VGND VNB sky130_fd_pr__nfet_01v8 ad=0p pd=0u as=0p ps=0u w=420000u l=150000u
X6 Y A VPWR VPB sky130_fd_pr__pfet_01v8_hvt ad=0p pd=0u as=0p ps=0u w=1e+06u l=150000u
X7 Y A VGND VNB sky130_fd_pr__nfet_01v8 ad=0p pd=0u as=0p ps=0u w=420000u l=150000u
X8 Y A VPWR VPB sky130_fd_pr__pfet_01v8_hvt ad=0p pd=0u as=0p ps=0u w=1e+06u l=150000u
X9 VPWR A Y VPB sky130_fd_pr__pfet_01v8_hvt ad=0p pd=0u as=0p ps=0u w=1e+06u l=150000u
.ends

.subckt sky130_fd_sc_hd__nor2_1 A B VGND VNB VPB VPWR Y
X0 VPWR A a_109_297# VPB sky130_fd_pr__pfet_01v8_hvt ad=0p pd=0u as=0p ps=0u w=1e+06u l=150000u
X1 VGND A Y VNB sky130_fd_pr__nfet_01v8 ad=0p pd=0u as=0p ps=0u w=650000u l=150000u
X2 a_109_297# B Y VPB sky130_fd_pr__pfet_01v8_hvt ad=0p pd=0u as=0p ps=0u w=1e+06u l=150000u
X3 Y B VGND VNB sky130_fd_pr__nfet_01v8 ad=0p pd=0u as=0p ps=0u w=650000u l=150000u
.ends

.subckt sky130_fd_sc_hd__clkinv_2 A VGND VNB VPB VPWR Y
X0 Y A VGND VNB sky130_fd_pr__nfet_01v8 ad=0p pd=0u as=0p ps=0u w=420000u l=150000u
X1 Y A VPWR VPB sky130_fd_pr__pfet_01v8_hvt ad=0p pd=0u as=0p ps=0u w=1e+06u l=150000u
X2 VPWR A Y VPB sky130_fd_pr__pfet_01v8_hvt ad=0p pd=0u as=0p ps=0u w=1e+06u l=150000u
X3 VGND A Y VNB sky130_fd_pr__nfet_01v8 ad=0p pd=0u as=0p ps=0u w=420000u l=150000u
X4 VPWR A Y VPB sky130_fd_pr__pfet_01v8_hvt ad=0p pd=0u as=0p ps=0u w=1e+06u l=150000u
.ends

.subckt sky130_fd_sc_hd__nand2_1 A B VGND VNB VPB VPWR Y
X0 VPWR A Y VPB sky130_fd_pr__pfet_01v8_hvt ad=0p pd=0u as=0p ps=0u w=1e+06u l=150000u
X1 Y A a_113_47# VNB sky130_fd_pr__nfet_01v8 ad=0p pd=0u as=0p ps=0u w=650000u l=150000u
X2 a_113_47# B VGND VNB sky130_fd_pr__nfet_01v8 ad=0p pd=0u as=0p ps=0u w=650000u l=150000u
X3 Y B VPWR VPB sky130_fd_pr__pfet_01v8_hvt ad=0p pd=0u as=0p ps=0u w=1e+06u l=150000u
.ends

.subckt sky130_fd_sc_hd__conb_1 VGND VNB VPB VPWR HI LO
R0 HI VPWR sky130_fd_pr__res_generic_po w=480000u l=45000u
R1 VGND LO sky130_fd_pr__res_generic_po w=480000u l=45000u
.ends

.subckt sky130_fd_sc_hd__nand3_1 A B C VGND VNB VPB VPWR Y
X0 VPWR B Y VPB sky130_fd_pr__pfet_01v8_hvt ad=0p pd=0u as=0p ps=0u w=1e+06u l=150000u
X1 Y A VPWR VPB sky130_fd_pr__pfet_01v8_hvt ad=0p pd=0u as=0p ps=0u w=1e+06u l=150000u
X2 a_193_47# B a_109_47# VNB sky130_fd_pr__nfet_01v8 ad=0p pd=0u as=0p ps=0u w=650000u l=150000u
X3 Y A a_193_47# VNB sky130_fd_pr__nfet_01v8 ad=0p pd=0u as=0p ps=0u w=650000u l=150000u
X4 Y C VPWR VPB sky130_fd_pr__pfet_01v8_hvt ad=0p pd=0u as=0p ps=0u w=1e+06u l=150000u
X5 a_109_47# C VGND VNB sky130_fd_pr__nfet_01v8 ad=0p pd=0u as=0p ps=0u w=650000u l=150000u
.ends

.subckt sky130_fd_sc_hd__sdlclkp_4 CLK GATE SCE VGND VNB VPB VPWR GCLK
X0 a_257_147# CLK VPWR VPB sky130_fd_pr__pfet_01v8_hvt ad=0p pd=0u as=0p ps=0u w=640000u l=150000u
X1 a_109_369# SCE VPWR VPB sky130_fd_pr__pfet_01v8_hvt ad=0p pd=0u as=0p ps=0u w=640000u l=150000u
X2 a_465_315# a_287_413# VPWR VPB sky130_fd_pr__pfet_01v8_hvt ad=0p pd=0u as=0p ps=0u w=1e+06u l=150000u
X3 VPWR a_1045_47# GCLK VPB sky130_fd_pr__pfet_01v8_hvt ad=0p pd=0u as=0p ps=0u w=1e+06u l=150000u
X4 a_287_413# a_257_147# a_27_47# VNB sky130_fd_pr__nfet_01v8 ad=0p pd=0u as=0p ps=0u w=360000u l=150000u
X5 VPWR a_257_147# a_257_243# VPB sky130_fd_pr__pfet_01v8_hvt ad=0p pd=0u as=0p ps=0u w=640000u l=150000u
X6 GCLK a_1045_47# VPWR VPB sky130_fd_pr__pfet_01v8_hvt ad=0p pd=0u as=0p ps=0u w=1e+06u l=150000u
X7 VGND a_257_147# a_257_243# VNB sky130_fd_pr__nfet_01v8 ad=0p pd=0u as=0p ps=0u w=420000u l=150000u
X8 VPWR a_1045_47# GCLK VPB sky130_fd_pr__pfet_01v8_hvt ad=0p pd=0u as=0p ps=0u w=1e+06u l=150000u
X9 VGND a_1045_47# GCLK VNB sky130_fd_pr__nfet_01v8 ad=0p pd=0u as=0p ps=0u w=650000u l=150000u
X10 VPWR a_465_315# a_383_413# VPB sky130_fd_pr__pfet_01v8_hvt ad=0p pd=0u as=0p ps=0u w=420000u l=150000u
X11 a_1127_47# a_465_315# a_1045_47# VNB sky130_fd_pr__nfet_01v8 ad=0p pd=0u as=0p ps=0u w=650000u l=150000u
X12 a_27_47# GATE VGND VNB sky130_fd_pr__nfet_01v8 ad=0p pd=0u as=0p ps=0u w=420000u l=150000u
X13 GCLK a_1045_47# VPWR VPB sky130_fd_pr__pfet_01v8_hvt ad=0p pd=0u as=0p ps=0u w=1e+06u l=150000u
X14 a_287_413# a_257_243# a_27_47# VPB sky130_fd_pr__pfet_01v8_hvt ad=0p pd=0u as=0p ps=0u w=420000u l=150000u
X15 a_383_413# a_257_147# a_287_413# VPB sky130_fd_pr__pfet_01v8_hvt ad=0p pd=0u as=0p ps=0u w=420000u l=150000u
X16 VGND CLK a_1127_47# VNB sky130_fd_pr__nfet_01v8 ad=0p pd=0u as=0p ps=0u w=650000u l=150000u
X17 a_257_147# CLK VGND VNB sky130_fd_pr__nfet_01v8 ad=0p pd=0u as=0p ps=0u w=420000u l=150000u
X18 GCLK a_1045_47# VGND VNB sky130_fd_pr__nfet_01v8 ad=0p pd=0u as=0p ps=0u w=650000u l=150000u
X19 GCLK a_1045_47# VGND VNB sky130_fd_pr__nfet_01v8 ad=0p pd=0u as=0p ps=0u w=650000u l=150000u
X20 a_27_47# GATE a_109_369# VPB sky130_fd_pr__pfet_01v8_hvt ad=0p pd=0u as=0p ps=0u w=640000u l=150000u
X21 VPWR CLK a_1045_47# VPB sky130_fd_pr__pfet_01v8_hvt ad=0p pd=0u as=0p ps=0u w=1e+06u l=150000u
X22 a_1045_47# a_465_315# VPWR VPB sky130_fd_pr__pfet_01v8_hvt ad=0p pd=0u as=0p ps=0u w=1e+06u l=150000u
X23 a_395_47# a_257_243# a_287_413# VNB sky130_fd_pr__nfet_01v8 ad=0p pd=0u as=0p ps=0u w=360000u l=150000u
X24 VGND a_1045_47# GCLK VNB sky130_fd_pr__nfet_01v8 ad=0p pd=0u as=0p ps=0u w=650000u l=150000u
X25 VGND a_465_315# a_395_47# VNB sky130_fd_pr__nfet_01v8 ad=0p pd=0u as=0p ps=0u w=420000u l=150000u
X26 VGND SCE a_27_47# VNB sky130_fd_pr__nfet_01v8 ad=0p pd=0u as=0p ps=0u w=420000u l=150000u
X27 a_465_315# a_287_413# VGND VNB sky130_fd_pr__nfet_01v8 ad=0p pd=0u as=0p ps=0u w=650000u l=150000u
.ends

.subckt sky130_fd_sc_hd__nand2b_1 A_N B VGND VNB VPB VPWR Y
X0 VGND A_N a_27_93# VNB sky130_fd_pr__nfet_01v8 ad=0p pd=0u as=0p ps=0u w=420000u l=150000u
X1 Y a_27_93# a_206_47# VNB sky130_fd_pr__nfet_01v8 ad=0p pd=0u as=0p ps=0u w=650000u l=150000u
X2 a_206_47# B VGND VNB sky130_fd_pr__nfet_01v8 ad=0p pd=0u as=0p ps=0u w=650000u l=150000u
X3 VPWR a_27_93# Y VPB sky130_fd_pr__pfet_01v8_hvt ad=0p pd=0u as=0p ps=0u w=1e+06u l=150000u
X4 Y B VPWR VPB sky130_fd_pr__pfet_01v8_hvt ad=0p pd=0u as=0p ps=0u w=1e+06u l=150000u
X5 VPWR A_N a_27_93# VPB sky130_fd_pr__pfet_01v8_hvt ad=0p pd=0u as=0p ps=0u w=420000u l=150000u
.ends

.subckt sar_adc_controller_8bit clk rst_n adc_start comparator_val run_adc_n adc_val[7]
+ adc_val[6] adc_val[5] adc_val[4] adc_val[3] adc_val[2] adc_val[1] adc_val[0] out_valid
+ VSS VDD
Xdac_mask_reg_4_ run_adc_n_reg/CLK U10/X VSS VSS VDD VDD U81/A sky130_fd_sc_hd__dfxtp_1
Xdac_mask_reg_3_ run_adc_n_reg/CLK U8/X VSS VSS VDD VDD U73/A sky130_fd_sc_hd__dfxtp_1
XU3 U3/A rst_n VSS VSS VDD VDD U3/X sky130_fd_sc_hd__and2_0
Xdac_mask_reg_2_ run_adc_n_reg/CLK U6/X VSS VSS VDD VDD U75/A sky130_fd_sc_hd__dfxtp_1
Xdac_mask_reg_1_ run_adc_n_reg/CLK U4/X VSS VSS VDD VDD U77/A sky130_fd_sc_hd__dfxtp_1
XU4 U4/A rst_n VSS VSS VDD VDD U4/X sky130_fd_sc_hd__and2_0
XU5 U5/A rst_n VSS VSS VDD VDD U5/X sky130_fd_sc_hd__and2_0
Xdac_mask_reg_0_ run_adc_n_reg/CLK U22/X VSS VSS VDD VDD U67/B sky130_fd_sc_hd__dfxtp_1
XU6 U6/A rst_n VSS VSS VDD VDD U6/X sky130_fd_sc_hd__and2_0
XU110 U98/B U77/A VSS VSS VDD VDD U22/A sky130_fd_sc_hd__nor2b_1
XU7 U7/A rst_n VSS VSS VDD VDD U7/X sky130_fd_sc_hd__and2_0
XU100 U67/B VSS VSS VDD VDD U100/Y sky130_fd_sc_hd__clkinv_1
XU8 U8/A rst_n VSS VSS VDD VDD U8/X sky130_fd_sc_hd__and2_0
XU101 U86/Y adc_start U99/Y VSS VSS VDD VDD U101/Y sky130_fd_sc_hd__a21oi_1
XU9 U9/A rst_n VSS VSS VDD VDD U9/X sky130_fd_sc_hd__and2_0
XU102 U99/B U100/Y U101/Y VSS VSS VDD VDD U21/A sky130_fd_sc_hd__o21ai_1
XCTS_ccl_a_inv_00003 CTS_ccl_a_inv_00006/Y VSS VSS VDD VDD run_adc_n_reg/CLK sky130_fd_sc_hd__clkinv_4
XU103 U90/A U99/A VSS VSS VDD VDD U17/A sky130_fd_sc_hd__nor2_1
XU104 U98/B U79/A VSS VSS VDD VDD U14/A sky130_fd_sc_hd__nor2b_1
XU105 U98/B U71/A VSS VSS VDD VDD U12/A sky130_fd_sc_hd__nor2b_1
XCTS_ccl_a_inv_00006 clk VSS VSS VDD VDD CTS_ccl_a_inv_00006/Y sky130_fd_sc_hd__clkinv_2
Xrun_adc_n_reg run_adc_n_reg/CLK U18/Y VSS VSS VDD VDD run_adc_n sky130_fd_sc_hd__dfxtp_1
XU106 U98/B U69/A VSS VSS VDD VDD U10/A sky130_fd_sc_hd__nor2b_1
XU107 U98/B U81/A VSS VSS VDD VDD U8/A sky130_fd_sc_hd__nor2b_1
XU108 U98/B U73/A VSS VSS VDD VDD U6/A sky130_fd_sc_hd__nor2b_1
XU109 U98/B U75/A VSS VSS VDD VDD U4/A sky130_fd_sc_hd__nor2b_1
XU90 U90/A U99/A VSS VSS VDD VDD U98/B sky130_fd_sc_hd__nand2_1
XU91 U91/A U98/B VSS VSS VDD VDD U91/Y sky130_fd_sc_hd__nor2_1
XU80 U98/A VSS VSS VDD VDD adc_val[7] sky130_fd_sc_hd__clkinv_1
XU92 U92/A U98/B VSS VSS VDD VDD U3/A sky130_fd_sc_hd__nor2_1
XU70 U96/A VSS VSS VDD VDD adc_val[5] sky130_fd_sc_hd__clkinv_1
XU81 U81/A U81/B VSS VSS VDD VDD U95/A sky130_fd_sc_hd__nor2_1
XU93 U93/A U98/B VSS VSS VDD VDD U5/A sky130_fd_sc_hd__nor2_1
XU71 U71/A U71/B VSS VSS VDD VDD U97/A sky130_fd_sc_hd__nor2_1
XU82 U95/A VSS VSS VDD VDD adc_val[4] sky130_fd_sc_hd__clkinv_1
Xstate_r_reg_1_ run_adc_n_reg/CLK U20/X VSS VSS VDD VDD U90/A sky130_fd_sc_hd__dfxtp_1
XU83 U83/A VSS VSS VDD VDD U99/A sky130_fd_sc_hd__clkinv_1
XU72 U97/A VSS VSS VDD VDD adc_val[6] sky130_fd_sc_hd__clkinv_1
XU94 U94/A U98/B VSS VSS VDD VDD U7/A sky130_fd_sc_hd__nor2_1
Xclk_gate_dac_select_bits_reg_LTIE VSS VSS VDD VDD clk_gate_dac_select_bits_reg_LTIE/HI
+ clk_gate_dac_select_bits_reg_LTIE/LO sky130_fd_sc_hd__conb_1
XU84 U90/A VSS VSS VDD VDD U99/B sky130_fd_sc_hd__clkinv_1
Xstate_r_reg_0_ run_adc_n_reg/CLK U21/X VSS VSS VDD VDD U83/A sky130_fd_sc_hd__dfxtp_1
XU95 U95/A U98/B VSS VSS VDD VDD U9/A sky130_fd_sc_hd__nor2_1
XU73 U73/A U73/B VSS VSS VDD VDD U94/A sky130_fd_sc_hd__nor2_1
Xdac_select_bits_reg_7_ dac_select_bits_reg_7_/CLK U15/X VSS VSS VDD VDD U79/B sky130_fd_sc_hd__dfxtp_1
XU85 U99/A U99/B VSS VSS VDD VDD U86/A sky130_fd_sc_hd__nand2_1
XU96 U96/A U98/B VSS VSS VDD VDD U96/Y sky130_fd_sc_hd__nor2_1
XU74 U94/A VSS VSS VDD VDD adc_val[3] sky130_fd_sc_hd__clkinv_1
Xdac_select_bits_reg_6_ dac_select_bits_reg_7_/CLK U13/X VSS VSS VDD VDD U71/B sky130_fd_sc_hd__dfxtp_1
XU20 U86/A rst_n VSS VSS VDD VDD U20/X sky130_fd_sc_hd__and2_0
XU86 U86/A VSS VSS VDD VDD U86/Y sky130_fd_sc_hd__clkinv_1
XU75 U75/A U75/B VSS VSS VDD VDD U93/A sky130_fd_sc_hd__nor2_1
XU97 U97/A U98/B VSS VSS VDD VDD U97/Y sky130_fd_sc_hd__nor2_1
Xdac_select_bits_reg_5_ dac_select_bits_reg_7_/CLK U11/X VSS VSS VDD VDD U69/B sky130_fd_sc_hd__dfxtp_1
XU76 U93/A VSS VSS VDD VDD adc_val[2] sky130_fd_sc_hd__clkinv_1
XU21 U21/A rst_n VSS VSS VDD VDD U21/X sky130_fd_sc_hd__and2_0
XU98 U98/A U98/B VSS VSS VDD VDD U98/Y sky130_fd_sc_hd__nor2_1
XU10 U10/A rst_n VSS VSS VDD VDD U10/X sky130_fd_sc_hd__and2_0
Xout_valid_reg run_adc_n_reg/CLK U19/X VSS VSS VDD VDD out_valid sky130_fd_sc_hd__dfxtp_1
Xdac_select_bits_reg_4_ dac_select_bits_reg_7_/CLK U9/X VSS VSS VDD VDD U81/B sky130_fd_sc_hd__dfxtp_1
XU99 U99/A U99/B VSS VSS VDD VDD U99/Y sky130_fd_sc_hd__nor2_1
XU88 comparator_val U99/A VSS VSS VDD VDD U89/A sky130_fd_sc_hd__nand2_1
XU77 U77/A U77/B VSS VSS VDD VDD U92/A sky130_fd_sc_hd__nor2_1
XU22 U22/A rst_n VSS VSS VDD VDD U22/X sky130_fd_sc_hd__and2_0
XU11 U96/Y rst_n VSS VSS VDD VDD U11/X sky130_fd_sc_hd__and2_0
Xdac_select_bits_reg_3_ dac_select_bits_reg_7_/CLK U7/X VSS VSS VDD VDD U73/B sky130_fd_sc_hd__dfxtp_1
XU89 U89/A U90/A rst_n VSS VSS VDD VDD U89/Y sky130_fd_sc_hd__nand3_1
XU78 U92/A VSS VSS VDD VDD adc_val[1] sky130_fd_sc_hd__clkinv_1
XU67 U67/A U67/B VSS VSS VDD VDD U91/A sky130_fd_sc_hd__nor2_1
XU12 U12/A rst_n VSS VSS VDD VDD U12/X sky130_fd_sc_hd__and2_0
Xdac_select_bits_reg_2_ dac_select_bits_reg_7_/CLK U5/X VSS VSS VDD VDD U75/B sky130_fd_sc_hd__dfxtp_1
XU68 U91/A VSS VSS VDD VDD adc_val[0] sky130_fd_sc_hd__clkinv_1
XU13 U97/Y rst_n VSS VSS VDD VDD U13/X sky130_fd_sc_hd__and2_0
XU79 U79/A U79/B VSS VSS VDD VDD U98/A sky130_fd_sc_hd__nor2_1
Xdac_select_bits_reg_1_ dac_select_bits_reg_7_/CLK U3/X VSS VSS VDD VDD U77/B sky130_fd_sc_hd__dfxtp_1
Xclk_gate_dac_select_bits_reg_latch clk U89/Y clk_gate_dac_select_bits_reg_LTIE/LO
+ VSS VSS VDD VDD dac_select_bits_reg_7_/CLK sky130_fd_sc_hd__sdlclkp_4
XU69 U69/A U69/B VSS VSS VDD VDD U96/A sky130_fd_sc_hd__nor2_1
XU14 U14/A rst_n VSS VSS VDD VDD U14/X sky130_fd_sc_hd__and2_0
Xdac_select_bits_reg_0_ dac_select_bits_reg_7_/CLK U16/X VSS VSS VDD VDD U67/A sky130_fd_sc_hd__dfxtp_1
XU15 U98/Y rst_n VSS VSS VDD VDD U15/X sky130_fd_sc_hd__and2_0
XU16 U91/Y rst_n VSS VSS VDD VDD U16/X sky130_fd_sc_hd__and2_0
XU17 U17/A rst_n VSS VSS VDD VDD U17/X sky130_fd_sc_hd__and2_0
Xdac_mask_reg_7_ run_adc_n_reg/CLK U17/X VSS VSS VDD VDD U79/A sky130_fd_sc_hd__dfxtp_1
XU18 U86/Y rst_n VSS VSS VDD VDD U18/Y sky130_fd_sc_hd__nand2b_1
Xdac_mask_reg_6_ run_adc_n_reg/CLK U14/X VSS VSS VDD VDD U71/A sky130_fd_sc_hd__dfxtp_1
XU19 U99/Y rst_n VSS VSS VDD VDD U19/X sky130_fd_sc_hd__and2_0
Xdac_mask_reg_5_ run_adc_n_reg/CLK U12/X VSS VSS VDD VDD U69/A sky130_fd_sc_hd__dfxtp_1
.ends

.subckt sky130_fd_pr__res_generic_m1_DYSWBR VSUBS m1_n60_300# m1_n60_n357#
R0 m1_n60_n357# m1_n60_300# sky130_fd_pr__res_generic_m1 w=600000u l=3e+06u
.ends

.subckt sky130_fd_pr__cap_mim_m3_1_KBZ9JD VSUBS m3_n1150_n1100# c1_n1050_n1000#
X0 c1_n1050_n1000# m3_n1150_n1100# sky130_fd_pr__cap_mim_m3_1 l=1e+07u w=1e+07u
.ends

.subckt sky130_fd_pr__cap_mim_m3_1_VQCCU2 VSUBS c1_n250_n1000# m3_n350_n1100#
X0 c1_n250_n1000# m3_n350_n1100# sky130_fd_pr__cap_mim_m3_1 l=1e+07u w=2e+06u
.ends

.subckt sky130_fd_pr__nfet_01v8_lvt_ZYX5GY VSUBS a_n5570_n355# a_n480_n355# a_1498_n300#
+ a_2516_n300# a_3534_n300# a_1556_n355# a_4552_n300# a_538_n355# a_2574_n355# a_n5628_n300#
+ a_n538_n300# a_n1556_n300# a_5570_n300# a_n1498_n355# a_3592_n355# a_n2516_n355#
+ a_4610_n355# a_n2574_n300# a_480_n300# a_n3534_n355# a_n3592_n300# a_n4610_n300#
+ a_n4552_n355#
X0 a_n4610_n300# a_n5570_n355# a_n5628_n300# VSUBS sky130_fd_pr__nfet_01v8_lvt ad=0p pd=0u as=0p ps=0u w=3e+06u l=4.8e+06u
X1 a_1498_n300# a_538_n355# a_480_n300# VSUBS sky130_fd_pr__nfet_01v8_lvt ad=0p pd=0u as=0p ps=0u w=3e+06u l=4.8e+06u
X2 a_4552_n300# a_3592_n355# a_3534_n300# VSUBS sky130_fd_pr__nfet_01v8_lvt ad=0p pd=0u as=0p ps=0u w=3e+06u l=4.8e+06u
X3 a_n538_n300# a_n1498_n355# a_n1556_n300# VSUBS sky130_fd_pr__nfet_01v8_lvt ad=0p pd=0u as=0p ps=0u w=3e+06u l=4.8e+06u
X4 a_3534_n300# a_2574_n355# a_2516_n300# VSUBS sky130_fd_pr__nfet_01v8_lvt ad=0p pd=0u as=0p ps=0u w=3e+06u l=4.8e+06u
X5 a_n3592_n300# a_n4552_n355# a_n4610_n300# VSUBS sky130_fd_pr__nfet_01v8_lvt ad=0p pd=0u as=0p ps=0u w=3e+06u l=4.8e+06u
X6 a_2516_n300# a_1556_n355# a_1498_n300# VSUBS sky130_fd_pr__nfet_01v8_lvt ad=0p pd=0u as=0p ps=0u w=3e+06u l=4.8e+06u
X7 a_n2574_n300# a_n3534_n355# a_n3592_n300# VSUBS sky130_fd_pr__nfet_01v8_lvt ad=0p pd=0u as=0p ps=0u w=3e+06u l=4.8e+06u
X8 a_5570_n300# a_4610_n355# a_4552_n300# VSUBS sky130_fd_pr__nfet_01v8_lvt ad=0p pd=0u as=0p ps=0u w=3e+06u l=4.8e+06u
X9 a_480_n300# a_n480_n355# a_n538_n300# VSUBS sky130_fd_pr__nfet_01v8_lvt ad=0p pd=0u as=0p ps=0u w=3e+06u l=4.8e+06u
X10 a_n1556_n300# a_n2516_n355# a_n2574_n300# VSUBS sky130_fd_pr__nfet_01v8_lvt ad=0p pd=0u as=0p ps=0u w=3e+06u l=4.8e+06u
.ends

.subckt sky130_fd_pr__nfet_01v8_MCKC3T VSUBS a_n9133_n355# a_n9191_n300# a_n5061_n355#
+ a_989_n300# a_6079_n300# a_2007_n300# a_5119_n355# a_7097_n300# a_3025_n300# a_1047_n355#
+ a_n10151_n355# a_8115_n300# a_6137_n355# a_n989_n355# a_29_n355# a_4043_n300# a_2065_n355#
+ a_n29_n300# a_n5119_n300# a_9133_n300# a_7155_n355# a_n1047_n300# a_5061_n300# a_3083_n355#
+ a_n6137_n300# a_n6079_n355# a_8173_n355# a_n2007_n355# a_4101_n355# a_n2065_n300#
+ a_n7155_n300# a_n7097_n355# a_9191_n355# a_n3025_n355# a_n10209_n300# a_n3083_n300#
+ a_10151_n300# a_n8115_n355# a_n8173_n300# a_n4101_n300# a_n4043_n355#
X0 a_10151_n300# a_9191_n355# a_9133_n300# VSUBS sky130_fd_pr__nfet_01v8 ad=0p pd=0u as=0p ps=0u w=3e+06u l=4.8e+06u
X1 a_n2065_n300# a_n3025_n355# a_n3083_n300# VSUBS sky130_fd_pr__nfet_01v8 ad=0p pd=0u as=0p ps=0u w=3e+06u l=4.8e+06u
X2 a_n6137_n300# a_n7097_n355# a_n7155_n300# VSUBS sky130_fd_pr__nfet_01v8 ad=0p pd=0u as=0p ps=0u w=3e+06u l=4.8e+06u
X3 a_989_n300# a_29_n355# a_n29_n300# VSUBS sky130_fd_pr__nfet_01v8 ad=0p pd=0u as=0p ps=0u w=3e+06u l=4.8e+06u
X4 a_5061_n300# a_4101_n355# a_4043_n300# VSUBS sky130_fd_pr__nfet_01v8 ad=0p pd=0u as=0p ps=0u w=3e+06u l=4.8e+06u
X5 a_9133_n300# a_8173_n355# a_8115_n300# VSUBS sky130_fd_pr__nfet_01v8 ad=0p pd=0u as=0p ps=0u w=3e+06u l=4.8e+06u
X6 a_n1047_n300# a_n2007_n355# a_n2065_n300# VSUBS sky130_fd_pr__nfet_01v8 ad=0p pd=0u as=0p ps=0u w=3e+06u l=4.8e+06u
X7 a_n9191_n300# a_n10151_n355# a_n10209_n300# VSUBS sky130_fd_pr__nfet_01v8 ad=0p pd=0u as=0p ps=0u w=3e+06u l=4.8e+06u
X8 a_n5119_n300# a_n6079_n355# a_n6137_n300# VSUBS sky130_fd_pr__nfet_01v8 ad=0p pd=0u as=0p ps=0u w=3e+06u l=4.8e+06u
X9 a_8115_n300# a_7155_n355# a_7097_n300# VSUBS sky130_fd_pr__nfet_01v8 ad=0p pd=0u as=0p ps=0u w=3e+06u l=4.8e+06u
X10 a_n8173_n300# a_n9133_n355# a_n9191_n300# VSUBS sky130_fd_pr__nfet_01v8 ad=0p pd=0u as=0p ps=0u w=3e+06u l=4.8e+06u
X11 a_7097_n300# a_6137_n355# a_6079_n300# VSUBS sky130_fd_pr__nfet_01v8 ad=0p pd=0u as=0p ps=0u w=3e+06u l=4.8e+06u
X12 a_4043_n300# a_3083_n355# a_3025_n300# VSUBS sky130_fd_pr__nfet_01v8 ad=0p pd=0u as=0p ps=0u w=3e+06u l=4.8e+06u
X13 a_n29_n300# a_n989_n355# a_n1047_n300# VSUBS sky130_fd_pr__nfet_01v8 ad=0p pd=0u as=0p ps=0u w=3e+06u l=4.8e+06u
X14 a_n7155_n300# a_n8115_n355# a_n8173_n300# VSUBS sky130_fd_pr__nfet_01v8 ad=0p pd=0u as=0p ps=0u w=3e+06u l=4.8e+06u
X15 a_6079_n300# a_5119_n355# a_5061_n300# VSUBS sky130_fd_pr__nfet_01v8 ad=0p pd=0u as=0p ps=0u w=3e+06u l=4.8e+06u