* NGSPICE file created from low_freq_pll_flat.ext - technology: sky130A

.subckt low_freq_pll_flat VDD VSS vsigin ibiasn vcp
X0 freq_div_0/sky130_fd_sc_hd__dfxbp_1_8/Q a_34309_6805# VSS VSS sky130_fd_pr__nfet_01v8 ad=1.69e+11p pd=1.82e+06u as=4.23972e+13p ps=4.1226e+08u w=650000u l=150000u
X1 VSS a_31186_5717# a_31144_6121# VSS sky130_fd_pr__nfet_01v8 ad=0p pd=0u as=1.392e+11p ps=1.53e+06u w=420000u l=150000u
X2 cs_ring_osc_0/cs_ring_osc_stage_3/vin cs_ring_osc_0/cs_ring_osc_stage_2/voutcs a_17431_n18921# VDD sky130_fd_pr__pfet_01v8_hvt ad=1.74e+12p pd=1.258e+07u as=1.74e+12p ps=1.258e+07u w=6e+06u l=2e+06u
X3 pfd_cp_lpf_0/sky130_fd_sc_hd__dfrbp_1_0/Q_N a_29107_13961# VDD VDD sky130_fd_pr__pfet_01v8_hvt ad=2.6e+11p pd=2.52e+06u as=1.60678e+14p ps=1.23322e+09u w=1e+06u l=150000u
X4 a_26616_1344# cs_ring_osc_0/vpbias a_27074_1344# VDD sky130_fd_pr__pfet_01v8_hvt ad=4.64e+12p pd=3.316e+07u as=4.64e+12p ps=3.316e+07u w=8e+06u l=2e+06u
X5 a_11056_n20414# cs_ring_osc_0/cs_ring_osc_stage_2/vin a_10598_n20414# VSS sky130_fd_pr__nfet_01v8 ad=2.9e+11p pd=2.58e+06u as=2.9e+11p ps=2.58e+06u w=1e+06u l=2e+06u
X6 a_26208_9468# cs_ring_osc_0/cs_ring_osc_stage_5/vout a_25750_9468# VSS sky130_fd_pr__nfet_01v8 ad=2.9e+11p pd=2.58e+06u as=2.9e+11p ps=2.58e+06u w=1e+06u l=2e+06u
X7 cs_ring_osc_0/cs_ring_osc_stage_0/voutcs cs_ring_osc_0/vosc a_12430_n2414# VSS sky130_fd_pr__nfet_01v8 ad=2.9e+11p pd=2.58e+06u as=2.9e+11p ps=2.58e+06u w=1e+06u l=2e+06u
X8 a_20446_n5874# vcp a_19988_n5874# VSS sky130_fd_pr__nfet_01v8 ad=2.9e+11p pd=2.58e+06u as=2.9e+11p ps=2.58e+06u w=1e+06u l=2e+06u
X9 VDD freq_div_0/sky130_fd_sc_hd__inv_4_10/A freq_div_0/sky130_fd_sc_hd__inv_4_10/Y VDD sky130_fd_pr__pfet_01v8_hvt ad=0p pd=0u as=5.4e+11p ps=5.08e+06u w=1e+06u l=150000u
X10 VSS VSS sky130_fd_pr__cap_mim_m3_1 l=2e+06u w=2e+06u
X11 VSS VSS cs_ring_osc_0/cs_ring_osc_stage_1/vin VSS sky130_fd_pr__nfet_01v8 ad=0p pd=0u as=2.9e+11p ps=2.58e+06u w=1e+06u l=2e+06u
X12 cs_ring_osc_0/cs_ring_osc_stage_2/vin VSS VSS VSS sky130_fd_pr__nfet_01v8 ad=2.9e+11p pd=2.58e+06u as=0p ps=0u w=1e+06u l=2e+06u
X13 pfd_cp_lpf_0/vRSTN pfd_cp_lpf_0/vQA a_29765_13961# VSS sky130_fd_pr__nfet_01v8 ad=1.69e+11p pd=1.82e+06u as=1.755e+11p ps=1.84e+06u w=650000u l=150000u
X14 a_33716_7741# a_33443_7375# a_33631_7375# VDD sky130_fd_pr__pfet_01v8_hvt ad=1.365e+11p pd=1.49e+06u as=1.155e+11p ps=1.39e+06u w=420000u l=150000u
X15 a_13614_n6542# cs_ring_osc_0/cs_ring_osc_stage_1/voutcs cs_ring_osc_0/cs_ring_osc_stage_2/vin VSS sky130_fd_pr__nfet_01v8 ad=2.9e+11p pd=2.58e+06u as=0p ps=0u w=1e+06u l=2e+06u
X16 freq_div_0/sky130_fd_sc_hd__inv_4_0/A freq_div_0/sky130_fd_sc_hd__inv_1_0/A VSS VSS sky130_fd_pr__nfet_01v8 ad=1.69e+11p pd=1.82e+06u as=0p ps=0u w=650000u l=150000u
X17 VSS a_31611_7643# a_31569_7375# VSS sky130_fd_pr__nfet_01v8 ad=0p pd=0u as=1.32e+11p ps=1.49e+06u w=420000u l=150000u
X18 a_25599_n921# cs_ring_osc_0/cs_ring_osc_stage_5/vin a_25141_n921# VDD sky130_fd_pr__pfet_01v8_hvt ad=1.74e+12p pd=1.258e+07u as=1.74e+12p ps=1.258e+07u w=6e+06u l=2e+06u
X19 freq_div_0/sky130_fd_sc_hd__dfxbp_1_1/Q a_31611_7893# VSS VSS sky130_fd_pr__nfet_01v8 ad=1.69e+11p pd=1.82e+06u as=0p ps=0u w=650000u l=150000u
X20 a_14698_6217# cs_ring_osc_0/vpbias a_15156_6217# VDD sky130_fd_pr__pfet_01v8_hvt ad=4.64e+12p pd=3.316e+07u as=4.64e+12p ps=3.316e+07u w=8e+06u l=2e+06u
X21 a_9683_n18921# cs_ring_osc_0/cs_ring_osc_stage_2/vin cs_ring_osc_0/cs_ring_osc_stage_2/csinvp VDD sky130_fd_pr__pfet_01v8_hvt ad=1.74e+12p pd=1.258e+07u as=4.06e+12p ps=2.916e+07u w=6e+06u l=2e+06u
X22 VDD freq_div_0/sky130_fd_sc_hd__dfxbp_1_10/Q a_33277_6287# VDD sky130_fd_pr__pfet_01v8_hvt ad=0p pd=0u as=1.664e+11p ps=1.8e+06u w=640000u l=150000u
X23 a_11972_n20414# cs_ring_osc_0/cs_ring_osc_stage_2/vin a_11514_n20414# VSS sky130_fd_pr__nfet_01v8 ad=2.9e+11p pd=2.58e+06u as=2.9e+11p ps=2.58e+06u w=1e+06u l=2e+06u
X24 VSS VSS cs_ring_osc_0/cs_ring_osc_stage_4/csinvn VSS sky130_fd_pr__nfet_01v8 ad=0p pd=0u as=5.8e+11p ps=5.16e+06u w=1e+06u l=2e+06u
X25 a_16056_n20414# cs_ring_osc_0/cs_ring_osc_stage_2/voutcs a_15598_n20414# VSS sky130_fd_pr__nfet_01v8 ad=2.9e+11p pd=2.58e+06u as=2.9e+11p ps=2.58e+06u w=1e+06u l=2e+06u
X26 VSS freq_div_0/sky130_fd_sc_hd__inv_4_3/A freq_div_0/sky130_fd_sc_hd__inv_4_3/Y VSS sky130_fd_pr__nfet_01v8 ad=0p pd=0u as=3.51e+11p ps=3.68e+06u w=650000u l=150000u
X27 cs_ring_osc_0/cs_ring_osc_stage_3/vin VSS sky130_fd_pr__cap_mim_m3_1 l=2e+06u w=2e+06u
X28 VSS VSS sky130_fd_pr__cap_mim_m3_1 l=2e+06u w=2e+06u
X29 a_26056_n21082# vcp a_25598_n21082# VSS sky130_fd_pr__nfet_01v8 ad=2.9e+11p pd=2.58e+06u as=2.9e+11p ps=2.58e+06u w=1e+06u l=2e+06u
X30 cs_ring_osc_0/cs_ring_osc_stage_5/vin VDD VDD VDD sky130_fd_pr__pfet_01v8_hvt ad=1.74e+12p pd=1.258e+07u as=0p ps=0u w=6e+06u l=2e+06u
X31 VSS freq_div_0/vout a_27287_13961# VSS sky130_fd_pr__nfet_01v8 ad=0p pd=0u as=1.092e+11p ps=1.36e+06u w=420000u l=150000u
X32 cs_ring_osc_0/cs_ring_osc_stage_5/vin VSS sky130_fd_pr__cap_mim_m3_1 l=2e+06u w=2e+06u
X33 a_28613_n9035# cs_ring_osc_0/cs_ring_osc_stage_4/voutcs cs_ring_osc_0/cs_ring_osc_stage_5/vin VDD sky130_fd_pr__pfet_01v8_hvt ad=1.74e+12p pd=1.258e+07u as=0p ps=0u w=6e+06u l=2e+06u
X34 a_31079_14103# vsigin VDD VDD sky130_fd_pr__pfet_01v8_hvt ad=1.664e+11p pd=1.8e+06u as=0p ps=0u w=640000u l=150000u
X35 freq_div_0/sky130_fd_sc_hd__inv_4_10/A freq_div_0/sky130_fd_sc_hd__inv_1_10/A VSS VSS sky130_fd_pr__nfet_01v8 ad=1.69e+11p pd=1.82e+06u as=0p ps=0u w=650000u l=150000u
X36 VDD a_34309_5717# a_34225_5743# VDD sky130_fd_pr__pfet_01v8_hvt ad=0p pd=0u as=1.764e+11p ps=1.68e+06u w=420000u l=150000u
X37 VSS freq_div_0/sky130_fd_sc_hd__dfxbp_1_4/Q a_30579_5749# VSS sky130_fd_pr__nfet_01v8 ad=0p pd=0u as=1.092e+11p ps=1.36e+06u w=420000u l=150000u
X38 a_29682_n2414# cs_ring_osc_0/cs_ring_osc_stage_5/voutcs VSS VSS sky130_fd_pr__nfet_01v8 ad=2.9e+11p pd=2.58e+06u as=0p ps=0u w=1e+06u l=2e+06u
X39 a_21362_n6542# cs_ring_osc_0/cs_ring_osc_stage_1/vin a_20904_n6542# VSS sky130_fd_pr__nfet_01v8 ad=2.9e+11p pd=2.58e+06u as=2.9e+11p ps=2.58e+06u w=1e+06u l=2e+06u
X40 VSS VSS sky130_fd_pr__cap_mim_m3_1 l=2e+06u w=2e+06u
X41 VSS VDD a_31798_14327# VSS sky130_fd_pr__nfet_01v8 ad=0p pd=0u as=1.32e+11p ps=1.49e+06u w=420000u l=150000u
X42 a_31018_8829# a_30745_8463# a_30933_8463# VDD sky130_fd_pr__pfet_01v8_hvt ad=1.365e+11p pd=1.49e+06u as=1.155e+11p ps=1.39e+06u w=420000u l=150000u
X43 freq_div_0/sky130_fd_sc_hd__dfxbp_1_2/Q a_31611_6805# VSS VSS sky130_fd_pr__nfet_01v8 ad=1.69e+11p pd=1.82e+06u as=0p ps=0u w=650000u l=150000u
X44 VSS VSS sky130_fd_pr__cap_mim_m3_1 l=2e+06u w=2e+06u
X45 a_33716_7919# a_33443_7925# a_33631_7919# VDD sky130_fd_pr__pfet_01v8_hvt ad=1.365e+11p pd=1.49e+06u as=1.155e+11p ps=1.39e+06u w=420000u l=150000u
X46 cs_ring_osc_0/cs_ring_osc_stage_1/csinvn cs_ring_osc_0/cs_ring_osc_stage_1/vin a_21362_n6542# VSS sky130_fd_pr__nfet_01v8 ad=5.8e+11p pd=5.16e+06u as=0p ps=0u w=1e+06u l=2e+06u
X47 VDD VDD VDD VDD sky130_fd_pr__pfet_01v8_hvt ad=0p pd=0u as=0p ps=0u w=8e+06u l=2e+06u
X48 cs_ring_osc_0/cs_ring_osc_stage_4/csinvp cs_ring_osc_0/vpbias a_32138_n11700# VDD sky130_fd_pr__pfet_01v8_hvt ad=4.06e+12p pd=2.916e+07u as=4.64e+12p ps=3.316e+07u w=8e+06u l=2e+06u
X49 VDD VDD pfd_cp_lpf_0/vpbias VDD sky130_fd_pr__pfet_01v8 ad=0p pd=0u as=1.45e+12p ps=1.29e+07u w=1e+06u l=4e+06u
X50 VDD a_30294_13935# pfd_cp_lpf_0/sky130_fd_sc_hd__dfrbp_1_1/Q_N VDD sky130_fd_pr__pfet_01v8_hvt ad=0p pd=0u as=2.6e+11p ps=2.52e+06u w=1e+06u l=150000u
X51 a_31166_14327# a_31040_14229# a_30762_14213# VSS sky130_fd_pr__nfet_01v8 ad=1.998e+11p pd=1.97e+06u as=1.422e+11p ps=1.51e+06u w=360000u l=150000u
X52 a_15599_n921# cs_ring_osc_0/cs_ring_osc_stage_0/voutcs a_15141_n921# VDD sky130_fd_pr__pfet_01v8_hvt ad=1.74e+12p pd=1.258e+07u as=1.74e+12p ps=1.258e+07u w=6e+06u l=2e+06u
X53 a_16972_n20414# cs_ring_osc_0/cs_ring_osc_stage_2/voutcs a_16514_n20414# VSS sky130_fd_pr__nfet_01v8 ad=2.9e+11p pd=2.58e+06u as=2.9e+11p ps=2.58e+06u w=1e+06u l=2e+06u
X54 a_31443_8829# a_30745_8463# a_31186_8575# VSS sky130_fd_pr__nfet_01v8 ad=1.368e+11p pd=1.48e+06u as=1.978e+11p ps=1.99e+06u w=360000u l=150000u
X55 VSS a_31611_7893# a_32042_7919# VSS sky130_fd_pr__nfet_01v8 ad=0p pd=0u as=1.092e+11p ps=1.36e+06u w=420000u l=150000u
X56 VDD a_33884_7487# a_33811_7741# VDD sky130_fd_pr__pfet_01v8_hvt ad=0p pd=0u as=1.533e+11p ps=1.57e+06u w=420000u l=150000u
X57 a_27074_1344# cs_ring_osc_0/vpbias a_26616_1344# VDD sky130_fd_pr__pfet_01v8_hvt ad=0p pd=0u as=0p ps=0u w=8e+06u l=2e+06u
X58 a_26972_n21082# vcp a_26514_n21082# VSS sky130_fd_pr__nfet_01v8 ad=2.9e+11p pd=2.58e+06u as=2.9e+11p ps=2.58e+06u w=1e+06u l=2e+06u
X59 VDD freq_div_0/sky130_fd_sc_hd__inv_4_5/A freq_div_0/sky130_fd_sc_hd__inv_4_5/Y VDD sky130_fd_pr__pfet_01v8_hvt ad=0p pd=0u as=5.4e+11p ps=5.08e+06u w=1e+06u l=150000u
X60 a_25242_1344# cs_ring_osc_0/vpbias a_25700_1344# VDD sky130_fd_pr__pfet_01v8_hvt ad=4.64e+12p pd=3.316e+07u as=4.64e+12p ps=3.316e+07u w=8e+06u l=2e+06u
X61 a_27990_n16656# cs_ring_osc_0/vpbias cs_ring_osc_0/cs_ring_osc_stage_3/csinvp VDD sky130_fd_pr__pfet_01v8_hvt ad=4.64e+12p pd=3.316e+07u as=4.06e+12p ps=2.916e+07u w=8e+06u l=2e+06u
X62 VDD VDD VDD VDD sky130_fd_pr__pfet_01v8_hvt ad=0p pd=0u as=0p ps=0u w=8e+06u l=2e+06u
X63 a_36361_n9035# cs_ring_osc_0/cs_ring_osc_stage_4/vin a_35903_n9035# VDD sky130_fd_pr__pfet_01v8_hvt ad=1.74e+12p pd=1.258e+07u as=1.74e+12p ps=1.258e+07u w=6e+06u l=2e+06u
X64 VDD a_28543_13935# a_28530_14327# VDD sky130_fd_pr__pfet_01v8_hvt ad=0p pd=0u as=1.134e+11p ps=1.38e+06u w=420000u l=150000u
X65 a_31018_7741# a_30745_7375# a_30933_7375# VDD sky130_fd_pr__pfet_01v8_hvt ad=1.365e+11p pd=1.49e+06u as=1.155e+11p ps=1.39e+06u w=420000u l=150000u
X66 VSS VSS sky130_fd_pr__cap_mim_m3_1 l=2e+06u w=2e+06u
X67 a_33716_6831# a_33443_6837# a_33631_6831# VDD sky130_fd_pr__pfet_01v8_hvt ad=1.365e+11p pd=1.49e+06u as=1.155e+11p ps=1.39e+06u w=420000u l=150000u
X68 pfd_cp_lpf_0/vpbias ibiasn VSS VSS sky130_fd_pr__nfet_01v8 ad=2.9e+11p pd=2.58e+06u as=0p ps=0u w=1e+06u l=4e+06u
X69 a_33811_7741# a_33277_7375# a_33716_7741# VDD sky130_fd_pr__pfet_01v8_hvt ad=0p pd=0u as=0p ps=0u w=420000u l=150000u
X70 freq_div_0/sky130_fd_sc_hd__inv_1_5/A a_32042_5743# VDD VDD sky130_fd_pr__pfet_01v8_hvt ad=2.6e+11p pd=2.52e+06u as=0p ps=0u w=1e+06u l=150000u
X71 VDD VDD VDD VDD sky130_fd_pr__pfet_01v8_hvt ad=0p pd=0u as=0p ps=0u w=8e+06u l=2e+06u
X72 a_16988_6217# cs_ring_osc_0/vpbias a_16530_6217# VDD sky130_fd_pr__pfet_01v8_hvt ad=4.64e+12p pd=3.316e+07u as=4.64e+12p ps=3.316e+07u w=8e+06u l=2e+06u
X73 freq_div_0/sky130_fd_sc_hd__inv_4_0/Y freq_div_0/sky130_fd_sc_hd__inv_4_0/A VSS VSS sky130_fd_pr__nfet_01v8 ad=3.51e+11p pd=3.68e+06u as=0p ps=0u w=650000u l=150000u
X74 a_15140_n2414# cs_ring_osc_0/cs_ring_osc_stage_0/voutcs a_14682_n2414# VSS sky130_fd_pr__nfet_01v8 ad=2.9e+11p pd=2.58e+06u as=2.9e+11p ps=2.58e+06u w=1e+06u l=2e+06u
X75 VSS ibiasn ibiasn VSS sky130_fd_pr__nfet_01v8 ad=0p pd=0u as=1.74e+12p ps=1.548e+07u w=1e+06u l=4e+06u
X76 VDD VDD VDD VDD sky130_fd_pr__pfet_01v8_hvt ad=0p pd=0u as=0p ps=0u w=8e+06u l=2e+06u
X77 a_11158_1344# cs_ring_osc_0/vpbias a_11616_1344# VDD sky130_fd_pr__pfet_01v8_hvt ad=4.64e+12p pd=3.316e+07u as=4.64e+12p ps=3.316e+07u w=8e+06u l=2e+06u
X78 VSS VSS sky130_fd_pr__cap_mim_m3_1 l=2e+06u w=2e+06u
X79 a_33884_7893# a_33716_7919# VSS VSS sky130_fd_pr__nfet_01v8 ad=1.978e+11p pd=1.99e+06u as=0p ps=0u w=640000u l=150000u
X80 VSS VSS sky130_fd_pr__cap_mim_m3_1 l=2e+06u w=2e+06u
X81 a_29529_n9035# cs_ring_osc_0/cs_ring_osc_stage_4/voutcs a_29071_n9035# VDD sky130_fd_pr__pfet_01v8_hvt ad=1.74e+12p pd=1.258e+07u as=1.74e+12p ps=1.258e+07u w=6e+06u l=2e+06u
X82 VDD a_33884_7893# a_33811_7919# VDD sky130_fd_pr__pfet_01v8_hvt ad=0p pd=0u as=1.533e+11p ps=1.57e+06u w=420000u l=150000u
X83 a_34141_7919# a_33443_7925# a_33884_7893# VSS sky130_fd_pr__nfet_01v8 ad=1.368e+11p pd=1.48e+06u as=0p ps=0u w=360000u l=150000u
X84 VSS VSS cs_ring_osc_0/cs_ring_osc_stage_1/csinvn VSS sky130_fd_pr__nfet_01v8 ad=0p pd=0u as=0p ps=0u w=1e+06u l=2e+06u
X85 cs_ring_osc_0/cs_ring_osc_stage_2/vin VSS sky130_fd_pr__cap_mim_m3_1 l=2e+06u w=2e+06u
X86 VSS VSS sky130_fd_pr__cap_mim_m3_1 l=2e+06u w=2e+06u
X87 a_27074_n16656# cs_ring_osc_0/vpbias a_27532_n16656# VDD sky130_fd_pr__pfet_01v8_hvt ad=4.64e+12p pd=3.316e+07u as=4.64e+12p ps=3.316e+07u w=8e+06u l=2e+06u
X88 a_20445_n9035# cs_ring_osc_0/cs_ring_osc_stage_1/vin a_19987_n9035# VDD sky130_fd_pr__pfet_01v8_hvt ad=1.74e+12p pd=1.258e+07u as=1.74e+12p ps=1.258e+07u w=6e+06u l=2e+06u
X89 VDD a_31611_6555# a_32042_6609# VDD sky130_fd_pr__pfet_01v8_hvt ad=0p pd=0u as=1.664e+11p ps=1.8e+06u w=640000u l=150000u
X90 a_31018_7919# a_30745_7925# a_30933_7919# VDD sky130_fd_pr__pfet_01v8_hvt ad=1.365e+11p pd=1.49e+06u as=1.155e+11p ps=1.39e+06u w=420000u l=150000u
X91 a_34072_n5874# vcp a_33614_n5874# VSS sky130_fd_pr__nfet_01v8 ad=2.9e+11p pd=2.58e+06u as=2.9e+11p ps=2.58e+06u w=1e+06u l=2e+06u
X92 a_26972_n2414# cs_ring_osc_0/cs_ring_osc_stage_5/vin a_26514_n2414# VSS sky130_fd_pr__nfet_01v8 ad=2.9e+11p pd=2.58e+06u as=2.9e+11p ps=2.58e+06u w=1e+06u l=2e+06u
X93 a_33811_7919# a_33277_7925# a_33716_7919# VDD sky130_fd_pr__pfet_01v8_hvt ad=0p pd=0u as=0p ps=0u w=420000u l=150000u
X94 VSS freq_div_0/sky130_fd_sc_hd__inv_4_7/A freq_div_0/sky130_fd_sc_hd__inv_4_7/Y VSS sky130_fd_pr__nfet_01v8 ad=0p pd=0u as=3.51e+11p ps=3.68e+06u w=650000u l=150000u
X95 freq_div_0/sky130_fd_sc_hd__inv_1_10/A a_34740_5743# VSS VSS sky130_fd_pr__nfet_01v8 ad=1.69e+11p pd=1.82e+06u as=0p ps=0u w=650000u l=150000u
X96 a_34530_n5874# vcp a_34072_n5874# VSS sky130_fd_pr__nfet_01v8 ad=2.9e+11p pd=2.58e+06u as=0p ps=0u w=1e+06u l=2e+06u
X97 VSS vcp a_12430_n21082# VSS sky130_fd_pr__nfet_01v8 ad=0p pd=0u as=2.9e+11p ps=2.58e+06u w=1e+06u l=2e+06u
X98 a_30762_14213# a_31079_14103# a_31037_13961# VSS sky130_fd_pr__nfet_01v8 ad=0p pd=0u as=1.338e+11p ps=1.5e+06u w=360000u l=150000u
X99 a_27430_n2414# cs_ring_osc_0/cs_ring_osc_stage_5/vin a_26972_n2414# VSS sky130_fd_pr__nfet_01v8 ad=2.9e+11p pd=2.58e+06u as=0p ps=0u w=1e+06u l=2e+06u
X100 VSS a_31611_7643# a_32042_7697# VSS sky130_fd_pr__nfet_01v8 ad=0p pd=0u as=1.092e+11p ps=1.36e+06u w=420000u l=150000u
X101 VDD a_33884_6805# a_33811_6831# VDD sky130_fd_pr__pfet_01v8_hvt ad=0p pd=0u as=1.533e+11p ps=1.57e+06u w=420000u l=150000u
X102 a_27125_7037# cs_ring_osc_0/cs_ring_osc_stage_5/vout a_26667_7037# VDD sky130_fd_pr__pfet_01v8_hvt ad=1.74e+12p pd=1.258e+07u as=1.74e+12p ps=1.258e+07u w=6e+06u l=2e+06u
X103 VDD VDD cs_ring_osc_0/cs_ring_osc_stage_4/csinvp VDD sky130_fd_pr__pfet_01v8_hvt ad=0p pd=0u as=0p ps=0u w=6e+06u l=2e+06u
X104 a_31018_6831# a_30745_6837# a_30933_6831# VDD sky130_fd_pr__pfet_01v8_hvt ad=1.365e+11p pd=1.49e+06u as=1.155e+11p ps=1.39e+06u w=420000u l=150000u
X105 a_31222_n11700# cs_ring_osc_0/vpbias a_30764_n11700# VDD sky130_fd_pr__pfet_01v8_hvt ad=4.64e+12p pd=3.316e+07u as=4.64e+12p ps=3.316e+07u w=8e+06u l=2e+06u
X106 a_27708_13961# VDD VSS VSS sky130_fd_pr__nfet_01v8 ad=1.32e+11p pd=1.49e+06u as=0p ps=0u w=420000u l=150000u
X107 VDD a_31079_14103# a_31040_14229# VDD sky130_fd_pr__pfet_01v8_hvt ad=0p pd=0u as=1.664e+11p ps=1.8e+06u w=640000u l=150000u
X108 a_10598_n2414# cs_ring_osc_0/vosc a_10140_n2414# VSS sky130_fd_pr__nfet_01v8 ad=2.9e+11p pd=2.58e+06u as=2.9e+11p ps=2.58e+06u w=1e+06u l=2e+06u
X109 a_14848_n11700# cs_ring_osc_0/vpbias a_14390_n11700# VDD sky130_fd_pr__pfet_01v8_hvt ad=4.64e+12p pd=3.316e+07u as=4.64e+12p ps=3.316e+07u w=8e+06u l=2e+06u
X110 a_33811_6831# a_33277_6837# a_33716_6831# VDD sky130_fd_pr__pfet_01v8_hvt ad=0p pd=0u as=0p ps=0u w=420000u l=150000u
X111 VSS VSS sky130_fd_pr__cap_mim_m3_1 l=2e+06u w=2e+06u
X112 VSS VSS cs_ring_osc_0/cs_ring_osc_stage_3/voutcs VSS sky130_fd_pr__nfet_01v8 ad=0p pd=0u as=2.9e+11p ps=2.58e+06u w=1e+06u l=2e+06u
X113 a_26973_n921# cs_ring_osc_0/cs_ring_osc_stage_5/vin a_26515_n921# VDD sky130_fd_pr__pfet_01v8_hvt ad=1.74e+12p pd=1.258e+07u as=1.74e+12p ps=1.258e+07u w=6e+06u l=2e+06u
X114 a_16056_n2414# cs_ring_osc_0/cs_ring_osc_stage_0/voutcs a_15598_n2414# VSS sky130_fd_pr__nfet_01v8 ad=2.9e+11p pd=2.58e+06u as=2.9e+11p ps=2.58e+06u w=1e+06u l=2e+06u
X115 a_16514_n2414# cs_ring_osc_0/cs_ring_osc_stage_0/voutcs a_16056_n2414# VSS sky130_fd_pr__nfet_01v8 ad=2.9e+11p pd=2.58e+06u as=0p ps=0u w=1e+06u l=2e+06u
X116 VDD cs_ring_osc_0/vpbias a_25242_n16656# VDD sky130_fd_pr__pfet_01v8_hvt ad=0p pd=0u as=4.64e+12p ps=3.316e+07u w=8e+06u l=2e+06u
X117 VDD pfd_cp_lpf_0/vpbias pfd_cp_lpf_0/vswitchh VDD sky130_fd_pr__pfet_01v8 ad=0p pd=0u as=2.61e+12p ps=2.206e+07u w=1e+06u l=4e+06u
X118 a_26666_9468# cs_ring_osc_0/cs_ring_osc_stage_5/vout a_26208_9468# VSS sky130_fd_pr__nfet_01v8 ad=2.9e+11p pd=2.58e+06u as=0p ps=0u w=1e+06u l=2e+06u
X119 a_31186_7893# a_31018_7919# VSS VSS sky130_fd_pr__nfet_01v8 ad=1.978e+11p pd=1.99e+06u as=0p ps=0u w=640000u l=150000u
X120 a_11158_n16656# cs_ring_osc_0/vpbias a_11616_n16656# VDD sky130_fd_pr__pfet_01v8_hvt ad=4.64e+12p pd=3.316e+07u as=4.64e+12p ps=3.316e+07u w=8e+06u l=2e+06u
X121 VDD a_31443_8829# a_31611_8731# VDD sky130_fd_pr__pfet_01v8_hvt ad=0p pd=0u as=2.7e+11p ps=2.54e+06u w=1e+06u l=150000u
X122 VSS VSS sky130_fd_pr__cap_mim_m3_1 l=2e+06u w=2e+06u
X123 a_28021_14203# a_27803_13961# VSS VSS sky130_fd_pr__nfet_01v8 ad=1.998e+11p pd=1.97e+06u as=0p ps=0u w=640000u l=150000u
X124 a_31443_7919# a_30745_7925# a_31186_7893# VSS sky130_fd_pr__nfet_01v8 ad=1.368e+11p pd=1.48e+06u as=0p ps=0u w=360000u l=150000u
X125 a_34225_7741# a_33443_7375# a_34141_7741# VDD sky130_fd_pr__pfet_01v8_hvt ad=1.764e+11p pd=1.68e+06u as=1.134e+11p ps=1.38e+06u w=420000u l=150000u
X126 a_12990_1344# cs_ring_osc_0/vpbias a_12532_1344# VDD sky130_fd_pr__pfet_01v8_hvt ad=4.64e+12p pd=3.316e+07u as=4.64e+12p ps=3.316e+07u w=8e+06u l=2e+06u
X127 VSS VSS sky130_fd_pr__cap_mim_m3_1 l=2e+06u w=2e+06u
X128 VDD pfd_cp_lpf_0/vpbias pfd_cp_lpf_0/vswitchh VDD sky130_fd_pr__pfet_01v8 ad=0p pd=0u as=0p ps=0u w=1e+06u l=4e+06u
X129 a_34988_n5874# vcp a_34530_n5874# VSS sky130_fd_pr__nfet_01v8 ad=2.9e+11p pd=2.58e+06u as=0p ps=0u w=1e+06u l=2e+06u
X130 cs_ring_osc_0/cs_ring_osc_stage_4/vin VSS sky130_fd_pr__cap_mim_m3_1 l=2e+06u w=2e+06u
X131 a_15764_n11700# cs_ring_osc_0/vpbias a_15306_n11700# VDD sky130_fd_pr__pfet_01v8_hvt ad=4.64e+12p pd=3.316e+07u as=4.64e+12p ps=3.316e+07u w=8e+06u l=2e+06u
X132 a_31018_8829# a_30579_8463# a_30933_8463# VSS sky130_fd_pr__nfet_01v8 ad=1.242e+11p pd=1.41e+06u as=1.626e+11p ps=1.66e+06u w=360000u l=150000u
X133 cs_ring_osc_0/cs_ring_osc_stage_5/voutcs cs_ring_osc_0/cs_ring_osc_stage_5/vin a_27430_n2414# VSS sky130_fd_pr__nfet_01v8 ad=2.9e+11p pd=2.58e+06u as=0p ps=0u w=1e+06u l=2e+06u
X134 a_35446_n5874# vcp a_34988_n5874# VSS sky130_fd_pr__nfet_01v8 ad=2.9e+11p pd=2.58e+06u as=0p ps=0u w=1e+06u l=2e+06u
X135 cs_ring_osc_0/cs_ring_osc_stage_2/vin VSS sky130_fd_pr__cap_mim_m3_1 l=2e+06u w=2e+06u
X136 VSS freq_div_0/sky130_fd_sc_hd__inv_4_3/A freq_div_0/sky130_fd_sc_hd__inv_4_3/Y VSS sky130_fd_pr__nfet_01v8 ad=0p pd=0u as=0p ps=0u w=650000u l=150000u
X137 cs_ring_osc_0/cs_ring_osc_stage_5/vin VSS VSS VSS sky130_fd_pr__nfet_01v8 ad=2.9e+11p pd=2.58e+06u as=0p ps=0u w=1e+06u l=2e+06u
X138 a_9682_n21082# vcp cs_ring_osc_0/cs_ring_osc_stage_2/csinvn VSS sky130_fd_pr__nfet_01v8 ad=2.9e+11p pd=2.58e+06u as=5.8e+11p ps=5.16e+06u w=1e+06u l=2e+06u
X139 a_26515_n18921# cs_ring_osc_0/cs_ring_osc_stage_3/vin a_26057_n18921# VDD sky130_fd_pr__pfet_01v8_hvt ad=1.74e+12p pd=1.258e+07u as=1.74e+12p ps=1.258e+07u w=6e+06u l=2e+06u
X140 a_28614_n6542# cs_ring_osc_0/cs_ring_osc_stage_4/voutcs cs_ring_osc_0/cs_ring_osc_stage_5/vin VSS sky130_fd_pr__nfet_01v8 ad=2.9e+11p pd=2.58e+06u as=0p ps=0u w=1e+06u l=2e+06u
X141 a_17446_9468# vcp a_16988_9468# VSS sky130_fd_pr__nfet_01v8 ad=2.9e+11p pd=2.58e+06u as=2.9e+11p ps=2.58e+06u w=1e+06u l=2e+06u
X142 a_10242_n16656# cs_ring_osc_0/vpbias a_10700_n16656# VDD sky130_fd_pr__pfet_01v8_hvt ad=4.64e+12p pd=3.316e+07u as=4.64e+12p ps=3.316e+07u w=8e+06u l=2e+06u
X143 VSS ibiasn ibiasn VSS sky130_fd_pr__nfet_01v8 ad=0p pd=0u as=0p ps=0u w=1e+06u l=4e+06u
X144 freq_div_0/sky130_fd_sc_hd__dfxbp_1_7/Q a_34309_7643# VDD VDD sky130_fd_pr__pfet_01v8_hvt ad=2.6e+11p pd=2.52e+06u as=0p ps=0u w=1e+06u l=150000u
X145 a_16973_n921# cs_ring_osc_0/cs_ring_osc_stage_0/voutcs a_16515_n921# VDD sky130_fd_pr__pfet_01v8_hvt ad=1.74e+12p pd=1.258e+07u as=1.74e+12p ps=1.258e+07u w=6e+06u l=2e+06u
X146 a_31144_8463# a_30745_8463# a_31018_8829# VSS sky130_fd_pr__nfet_01v8 ad=1.392e+11p pd=1.53e+06u as=0p ps=0u w=360000u l=150000u
X147 VSS a_31443_8829# a_31611_8731# VSS sky130_fd_pr__nfet_01v8 ad=0p pd=0u as=1.69e+11p ps=1.82e+06u w=650000u l=150000u
X148 freq_div_0/sky130_fd_sc_hd__inv_1_3/A a_32042_7697# VSS VSS sky130_fd_pr__nfet_01v8 ad=1.69e+11p pd=1.82e+06u as=0p ps=0u w=650000u l=150000u
X149 a_31527_8829# a_30745_8463# a_31443_8829# VDD sky130_fd_pr__pfet_01v8_hvt ad=1.764e+11p pd=1.68e+06u as=1.134e+11p ps=1.38e+06u w=420000u l=150000u
X150 a_34225_7919# a_33443_7925# a_34141_7919# VDD sky130_fd_pr__pfet_01v8_hvt ad=1.764e+11p pd=1.68e+06u as=1.134e+11p ps=1.38e+06u w=420000u l=150000u
X151 a_16680_n11700# cs_ring_osc_0/vpbias a_16222_n11700# VDD sky130_fd_pr__pfet_01v8_hvt ad=4.64e+12p pd=3.316e+07u as=4.64e+12p ps=3.316e+07u w=8e+06u l=2e+06u
X152 VSS VSS sky130_fd_pr__cap_mim_m3_1 l=2e+06u w=2e+06u
X153 a_34071_n9035# cs_ring_osc_0/cs_ring_osc_stage_4/vin a_33613_n9035# VDD sky130_fd_pr__pfet_01v8_hvt ad=1.74e+12p pd=1.258e+07u as=1.74e+12p ps=1.258e+07u w=6e+06u l=2e+06u
X154 VSS VSS cs_ring_osc_0/cs_ring_osc_stage_0/voutcs VSS sky130_fd_pr__nfet_01v8 ad=0p pd=0u as=0p ps=0u w=1e+06u l=2e+06u
X155 a_20904_n5874# vcp a_20446_n5874# VSS sky130_fd_pr__nfet_01v8 ad=2.9e+11p pd=2.58e+06u as=0p ps=0u w=1e+06u l=2e+06u
X156 VSS VSS sky130_fd_pr__cap_mim_m3_1 l=2e+06u w=2e+06u
X157 VSS VSS sky130_fd_pr__cap_mim_m3_1 l=2e+06u w=2e+06u
X158 a_27431_n18921# cs_ring_osc_0/cs_ring_osc_stage_3/vin a_26973_n18921# VDD sky130_fd_pr__pfet_01v8_hvt ad=1.74e+12p pd=1.258e+07u as=1.74e+12p ps=1.258e+07u w=6e+06u l=2e+06u
X159 VDD VDD VDD VDD sky130_fd_pr__pfet_01v8_hvt ad=0p pd=0u as=0p ps=0u w=8e+06u l=2e+06u
X160 a_36362_n6542# cs_ring_osc_0/cs_ring_osc_stage_4/vin a_35904_n6542# VSS sky130_fd_pr__nfet_01v8 ad=2.9e+11p pd=2.58e+06u as=2.9e+11p ps=2.58e+06u w=1e+06u l=2e+06u
X161 a_16530_6217# cs_ring_osc_0/vpbias a_16988_6217# VDD sky130_fd_pr__pfet_01v8_hvt ad=0p pd=0u as=0p ps=0u w=8e+06u l=2e+06u
X162 VSS a_31186_8575# a_31144_8463# VSS sky130_fd_pr__nfet_01v8 ad=0p pd=0u as=0p ps=0u w=420000u l=150000u
X163 VDD freq_div_0/sky130_fd_sc_hd__dfxbp_1_7/Q a_33277_7925# VDD sky130_fd_pr__pfet_01v8_hvt ad=0p pd=0u as=1.664e+11p ps=1.8e+06u w=640000u l=150000u
X164 a_31527_7741# a_30745_7375# a_31443_7741# VDD sky130_fd_pr__pfet_01v8_hvt ad=1.764e+11p pd=1.68e+06u as=1.134e+11p ps=1.38e+06u w=420000u l=150000u
X165 freq_div_0/sky130_fd_sc_hd__dfxbp_1_7/Q a_34309_7643# VSS VSS sky130_fd_pr__nfet_01v8 ad=1.69e+11p pd=1.82e+06u as=0p ps=0u w=650000u l=150000u
X166 VDD a_31186_6399# a_31113_6653# VDD sky130_fd_pr__pfet_01v8_hvt ad=0p pd=0u as=1.533e+11p ps=1.57e+06u w=420000u l=150000u
X167 VDD cs_ring_osc_0/vpbias a_10242_1344# VDD sky130_fd_pr__pfet_01v8_hvt ad=0p pd=0u as=4.64e+12p ps=3.316e+07u w=8e+06u l=2e+06u
X168 VSS VSS sky130_fd_pr__cap_mim_m3_1 l=2e+06u w=2e+06u
X169 cs_ring_osc_0/cs_ring_osc_stage_4/csinvn cs_ring_osc_0/cs_ring_osc_stage_4/vin a_36362_n6542# VSS sky130_fd_pr__nfet_01v8 ad=0p pd=0u as=0p ps=0u w=1e+06u l=2e+06u
X170 a_34225_6831# a_33443_6837# a_34141_6831# VDD sky130_fd_pr__pfet_01v8_hvt ad=1.764e+11p pd=1.68e+06u as=1.134e+11p ps=1.38e+06u w=420000u l=150000u
X171 freq_div_0/sky130_fd_sc_hd__inv_4_7/Y freq_div_0/sky130_fd_sc_hd__inv_4_7/A VDD VDD sky130_fd_pr__pfet_01v8_hvt ad=5.4e+11p pd=5.08e+06u as=0p ps=0u w=1e+06u l=150000u
X172 cs_ring_osc_0/cs_ring_osc_stage_5/vin VSS sky130_fd_pr__cap_mim_m3_1 l=2e+06u w=2e+06u
X173 VDD VDD VDD VDD sky130_fd_pr__pfet_01v8 ad=0p pd=0u as=0p ps=0u w=2e+06u l=1e+06u
X174 VDD freq_div_0/sky130_fd_sc_hd__dfxbp_1_3/Q a_30579_6837# VDD sky130_fd_pr__pfet_01v8_hvt ad=0p pd=0u as=1.664e+11p ps=1.8e+06u w=640000u l=150000u
X175 a_33443_7375# a_33277_7375# VDD VDD sky130_fd_pr__pfet_01v8_hvt ad=1.664e+11p pd=1.8e+06u as=0p ps=0u w=640000u l=150000u
X176 a_33443_7925# a_33277_7925# VSS VSS sky130_fd_pr__nfet_01v8 ad=1.092e+11p pd=1.36e+06u as=0p ps=0u w=420000u l=150000u
X177 a_31113_6653# a_30579_6287# a_31018_6653# VDD sky130_fd_pr__pfet_01v8_hvt ad=0p pd=0u as=1.365e+11p ps=1.49e+06u w=420000u l=150000u
X178 freq_div_0/sky130_fd_sc_hd__dfxbp_1_3/Q a_31611_7643# VDD VDD sky130_fd_pr__pfet_01v8_hvt ad=2.6e+11p pd=2.52e+06u as=0p ps=0u w=1e+06u l=150000u
X179 VSS a_34309_5717# a_34267_6121# VSS sky130_fd_pr__nfet_01v8 ad=0p pd=0u as=1.32e+11p ps=1.49e+06u w=420000u l=150000u
X180 a_20446_n6542# cs_ring_osc_0/cs_ring_osc_stage_1/vin a_19988_n6542# VSS sky130_fd_pr__nfet_01v8 ad=2.9e+11p pd=2.58e+06u as=2.9e+11p ps=2.58e+06u w=1e+06u l=2e+06u
X181 a_24682_n2414# cs_ring_osc_0/cs_ring_osc_stage_5/vin cs_ring_osc_0/cs_ring_osc_stage_5/csinvn VSS sky130_fd_pr__nfet_01v8 ad=2.9e+11p pd=2.58e+06u as=5.8e+11p ps=5.16e+06u w=1e+06u l=2e+06u
X182 cs_ring_osc_0/cs_ring_osc_stage_5/vout VSS sky130_fd_pr__cap_mim_m3_1 l=2e+06u w=2e+06u
X183 a_31527_7919# a_30745_7925# a_31443_7919# VDD sky130_fd_pr__pfet_01v8_hvt ad=1.764e+11p pd=1.68e+06u as=1.134e+11p ps=1.38e+06u w=420000u l=150000u
X184 a_25242_1344# cs_ring_osc_0/vpbias VDD VDD sky130_fd_pr__pfet_01v8_hvt ad=0p pd=0u as=0p ps=0u w=8e+06u l=2e+06u
X185 a_30140_n2414# cs_ring_osc_0/cs_ring_osc_stage_5/voutcs a_29682_n2414# VSS sky130_fd_pr__nfet_01v8 ad=2.9e+11p pd=2.58e+06u as=0p ps=0u w=1e+06u l=2e+06u
X186 a_33443_5749# a_33277_5749# VDD VDD sky130_fd_pr__pfet_01v8_hvt ad=1.664e+11p pd=1.8e+06u as=0p ps=0u w=640000u l=150000u
X187 a_34987_n9035# cs_ring_osc_0/cs_ring_osc_stage_4/vin a_34529_n9035# VDD sky130_fd_pr__pfet_01v8_hvt ad=1.74e+12p pd=1.258e+07u as=1.74e+12p ps=1.258e+07u w=6e+06u l=2e+06u
X188 VSS a_33884_6805# a_33842_7209# VSS sky130_fd_pr__nfet_01v8 ad=0p pd=0u as=1.392e+11p ps=1.53e+06u w=420000u l=150000u
X189 a_30745_8463# a_30579_8463# VDD VDD sky130_fd_pr__pfet_01v8_hvt ad=1.664e+11p pd=1.8e+06u as=0p ps=0u w=640000u l=150000u
X190 a_31018_7919# a_30579_7925# a_30933_7919# VSS sky130_fd_pr__nfet_01v8 ad=1.242e+11p pd=1.41e+06u as=1.626e+11p ps=1.66e+06u w=360000u l=150000u
X191 VDD a_34309_5717# a_34740_5743# VDD sky130_fd_pr__pfet_01v8_hvt ad=0p pd=0u as=1.664e+11p ps=1.8e+06u w=640000u l=150000u
X192 a_35445_n9035# cs_ring_osc_0/cs_ring_osc_stage_4/vin a_34987_n9035# VDD sky130_fd_pr__pfet_01v8_hvt ad=1.74e+12p pd=1.258e+07u as=0p ps=0u w=6e+06u l=2e+06u
X193 VSS VSS cs_ring_osc_0/cs_ring_osc_stage_4/csinvn VSS sky130_fd_pr__nfet_01v8 ad=0p pd=0u as=0p ps=0u w=1e+06u l=2e+06u
X194 VSS freq_div_0/vin a_30579_8463# VSS sky130_fd_pr__nfet_01v8 ad=0p pd=0u as=1.092e+11p ps=1.36e+06u w=420000u l=150000u
X195 freq_div_0/sky130_fd_sc_hd__inv_4_9/A freq_div_0/sky130_fd_sc_hd__inv_1_9/A VSS VSS sky130_fd_pr__nfet_01v8 ad=1.69e+11p pd=1.82e+06u as=0p ps=0u w=650000u l=150000u
X196 VSS VSS sky130_fd_pr__cap_mim_m3_1 l=2e+06u w=2e+06u
X197 a_31361_n9035# cs_ring_osc_0/cs_ring_osc_stage_4/voutcs a_30903_n9035# VDD sky130_fd_pr__pfet_01v8_hvt ad=1.74e+12p pd=1.258e+07u as=1.74e+12p ps=1.258e+07u w=6e+06u l=2e+06u
X198 a_15156_6217# cs_ring_osc_0/vpbias a_14698_6217# VDD sky130_fd_pr__pfet_01v8_hvt ad=0p pd=0u as=0p ps=0u w=8e+06u l=2e+06u
X199 a_27583_7037# cs_ring_osc_0/cs_ring_osc_stage_5/vout a_27125_7037# VDD sky130_fd_pr__pfet_01v8_hvt ad=1.74e+12p pd=1.258e+07u as=0p ps=0u w=6e+06u l=2e+06u
X200 freq_div_0/sky130_fd_sc_hd__dfxbp_1_3/Q a_31611_7643# VSS VSS sky130_fd_pr__nfet_01v8 ad=1.69e+11p pd=1.82e+06u as=0p ps=0u w=650000u l=150000u
X201 a_33716_6653# a_33277_6287# a_33631_6287# VSS sky130_fd_pr__nfet_01v8 ad=1.242e+11p pd=1.41e+06u as=1.626e+11p ps=1.66e+06u w=360000u l=150000u
X202 VDD VDD VDD VDD sky130_fd_pr__pfet_01v8_hvt ad=0p pd=0u as=0p ps=0u w=6e+06u l=2e+06u
X203 VSS ibiasn ibiasn VSS sky130_fd_pr__nfet_01v8 ad=0p pd=0u as=0p ps=0u w=1e+06u l=4e+06u
X204 cs_ring_osc_0/vosc cs_ring_osc_0/cs_ring_osc_stage_5/vout a_27582_9468# VSS sky130_fd_pr__nfet_01v8 ad=2.9e+11p pd=2.58e+06u as=2.9e+11p ps=2.58e+06u w=1e+06u l=2e+06u
X205 a_31527_6831# a_30745_6837# a_31443_6831# VDD sky130_fd_pr__pfet_01v8_hvt ad=1.764e+11p pd=1.68e+06u as=1.134e+11p ps=1.38e+06u w=420000u l=150000u
X206 VDD a_31186_5717# a_31113_5743# VDD sky130_fd_pr__pfet_01v8_hvt ad=0p pd=0u as=1.533e+11p ps=1.57e+06u w=420000u l=150000u
X207 a_12990_1344# cs_ring_osc_0/vpbias cs_ring_osc_0/cs_ring_osc_stage_0/csinvp VDD sky130_fd_pr__pfet_01v8_hvt ad=0p pd=0u as=4.06e+12p ps=2.916e+07u w=8e+06u l=2e+06u
X208 VSS VSS sky130_fd_pr__cap_mim_m3_1 l=2e+06u w=2e+06u
X209 freq_div_0/sky130_fd_sc_hd__inv_4_3/Y freq_div_0/sky130_fd_sc_hd__inv_4_3/A VDD VDD sky130_fd_pr__pfet_01v8_hvt ad=5.4e+11p pd=5.08e+06u as=0p ps=0u w=1e+06u l=150000u
X210 cs_ring_osc_0/cs_ring_osc_stage_4/vin VSS sky130_fd_pr__cap_mim_m3_1 l=2e+06u w=2e+06u
X211 VSS VSS sky130_fd_pr__cap_mim_m3_1 l=2e+06u w=2e+06u
X212 cs_ring_osc_0/cs_ring_osc_stage_1/vin VSS sky130_fd_pr__cap_mim_m3_1 l=2e+06u w=2e+06u
X213 a_31144_8297# a_30745_7925# a_31018_7919# VSS sky130_fd_pr__nfet_01v8 ad=1.392e+11p pd=1.53e+06u as=0p ps=0u w=360000u l=150000u
X214 VSS VSS sky130_fd_pr__cap_mim_m3_1 l=2e+06u w=2e+06u
X215 a_30745_7375# a_30579_7375# VDD VDD sky130_fd_pr__pfet_01v8_hvt ad=1.664e+11p pd=1.8e+06u as=0p ps=0u w=640000u l=150000u
X216 pfd_cp_lpf_0/vndiode pfd_cp_lpf_0/vndiode VSS VSS sky130_fd_pr__nfet_01v8 ad=2.9e+11p pd=2.58e+06u as=0p ps=0u w=1e+06u l=1e+06u
X217 a_30745_7925# a_30579_7925# VSS VSS sky130_fd_pr__nfet_01v8 ad=1.092e+11p pd=1.36e+06u as=0p ps=0u w=420000u l=150000u
X218 a_31113_5743# a_30579_5749# a_31018_5743# VDD sky130_fd_pr__pfet_01v8_hvt ad=0p pd=0u as=1.365e+11p ps=1.49e+06u w=420000u l=150000u