* NGSPICE file created from input_amplifier_flat.ext - technology: sky130A

.subckt input_amplifier_flat VDD VSS vincm vhpf gain_ctrl_0 gain_ctrl_1 vocm ibiasn1
+ vom vop ibiasn2 rst_n
X0 diff_fold_casc_ota_0/vcmcn2_casc vocm diff_fold_casc_ota_0/vcmn_casc_tail2 VSS sky130_fd_pr__nfet_01v8_lvt ad=0p pd=0u as=0p ps=0u w=1e+06u l=800000u
X1 venm2 vip2 sky130_fd_pr__cap_mim_m3_1 l=8e+06u w=8e+06u
X2 vop1 VSS sky130_fd_pr__cap_mim_m3_1 l=1e+07u w=1e+07u
X3 vop VDD VDD VDD sky130_fd_pr__pfet_01v8_hvt ad=0p pd=0u as=0p ps=0u w=2e+06u l=1e+06u
X4 VSS diff_fold_casc_ota_0/vbias4 a_15554_5588# VSS sky130_fd_pr__nfet_01v8 ad=0p pd=0u as=0p ps=0u w=3e+06u l=4.8e+06u
X5 vop diff_fold_casc_ota_1/vbias3 diff_fold_casc_ota_1/vcascnp VSS sky130_fd_pr__nfet_01v8 ad=0p pd=0u as=0p ps=0u w=3e+06u l=4.8e+06u
X6 diff_fold_casc_ota_1/vcascnm diff_fold_casc_ota_1/vbias4 VSS VSS sky130_fd_pr__nfet_01v8 ad=0p pd=0u as=0p ps=0u w=3e+06u l=4.8e+06u
X7 diff_fold_casc_ota_0/M1d diff_fold_casc_ota_0/vbias1 VDD VDD sky130_fd_pr__pfet_01v8_lvt ad=0p pd=0u as=0p ps=0u w=3e+06u l=4.8e+06u
X8 diff_fold_casc_ota_1/M6d diff_fold_casc_ota_1/vbias1 VDD VDD sky130_fd_pr__pfet_01v8_lvt ad=0p pd=0u as=0p ps=0u w=3e+06u l=4.8e+06u
X9 diff_fold_casc_ota_1/M3d diff_fold_casc_ota_1/M3d diff_fold_casc_ota_1/vbias3 VSS sky130_fd_pr__nfet_01v8 ad=0p pd=0u as=0p ps=0u w=3e+06u l=4.8e+06u
X10 VDD diff_fold_casc_ota_1/vcmcn2_casc diff_fold_casc_ota_1/vcmcn2_casc VDD sky130_fd_pr__pfet_01v8 ad=0p pd=0u as=0p ps=0u w=2e+06u l=800000u
X11 diff_fold_casc_ota_0/vfoldp diff_fold_casc_ota_0/vfoldp diff_fold_casc_ota_0/vfoldp VSS sky130_fd_pr__nfet_01v8_lvt ad=0p pd=0u as=0p ps=0u w=3e+06u l=1.2e+06u
X12 diff_fold_casc_ota_1/vtail_casc diff_fold_casc_ota_1/vcmc_casc VSS VSS sky130_fd_pr__nfet_01v8 ad=0p pd=0u as=0p ps=0u w=3e+06u l=4.8e+06u
X13 diff_fold_casc_ota_1/vcmn_casc_tail2 diff_fold_casc_ota_1/vcmn_casc_tail2 diff_fold_casc_ota_1/vcmn_casc_tail2 VSS sky130_fd_pr__nfet_01v8 ad=0p pd=0u as=0p ps=0u w=3e+06u l=4.8e+06u
X14 vom1 VSS sky130_fd_pr__cap_mim_m3_1 l=1e+07u w=1e+07u
X15 VSS VSS diff_fold_casc_ota_0/M3d VSS sky130_fd_pr__nfet_01v8 ad=0p pd=0u as=0p ps=0u w=3e+06u l=4.8e+06u
X16 VDD rst txgate_7/txb VDD sky130_fd_pr__pfet_01v8_hvt ad=0p pd=0u as=0p ps=0u w=1e+06u l=150000u
X17 diff_fold_casc_ota_1/vbias2 diff_fold_casc_ota_1/vbias1 diff_fold_casc_ota_1/vbias1 VSS sky130_fd_pr__nfet_01v8_lvt ad=0p pd=0u as=0p ps=0u w=3e+06u l=4.8e+06u
X18 VSS diff_fold_casc_ota_1/vbias4 a_69554_5588# VSS sky130_fd_pr__nfet_01v8 ad=0p pd=0u as=0p ps=0u w=3e+06u l=4.8e+06u
X19 VDD diff_fold_casc_ota_1/vcmcn_casc diff_fold_casc_ota_1/vcmc_casc VDD sky130_fd_pr__pfet_01v8 ad=0p pd=0u as=0p ps=0u w=2e+06u l=800000u
X20 VDD diff_fold_casc_ota_1/vcmcn_casc diff_fold_casc_ota_1/vcmcn_casc VDD sky130_fd_pr__pfet_01v8 ad=0p pd=0u as=0p ps=0u w=2e+06u l=800000u
X21 diff_fold_casc_ota_0/vbias3 diff_fold_casc_ota_0/M3d diff_fold_casc_ota_0/M3d VSS sky130_fd_pr__nfet_01v8 ad=0p pd=0u as=0p ps=0u w=3e+06u l=4.8e+06u
X22 diff_fold_casc_ota_1/vcascnm diff_fold_casc_ota_1/vbias3 vom VSS sky130_fd_pr__nfet_01v8 ad=0p pd=0u as=0p ps=0u w=3e+06u l=4.8e+06u
X23 diff_fold_casc_ota_0/vcmc_casc diff_fold_casc_ota_0/vcmcn_casc VDD VDD sky130_fd_pr__pfet_01v8 ad=0p pd=0u as=0p ps=0u w=2e+06u l=800000u
X24 VDD VDD VDD VDD sky130_fd_pr__pfet_01v8 ad=0p pd=0u as=0p ps=0u w=3e+06u l=4.8e+06u
X25 diff_fold_casc_ota_1/vfoldm diff_fold_casc_ota_1/vfoldm diff_fold_casc_ota_1/vfoldm VSS sky130_fd_pr__nfet_01v8_lvt ad=0p pd=0u as=0p ps=0u w=3e+06u l=1.2e+06u
X26 diff_fold_casc_ota_1/M6d diff_fold_casc_ota_1/vbias2 diff_fold_casc_ota_1/M13d VDD sky130_fd_pr__pfet_01v8 ad=0p pd=0u as=0p ps=0u w=3e+06u l=4.8e+06u
X27 diff_fold_casc_ota_0/vbias1 diff_fold_casc_ota_0/vbias1 diff_fold_casc_ota_0/vbias2 VSS sky130_fd_pr__nfet_01v8_lvt ad=0p pd=0u as=0p ps=0u w=3e+06u l=4.8e+06u
X28 diff_fold_casc_ota_0/vbias3 diff_fold_casc_ota_0/M3d diff_fold_casc_ota_0/vbias4 VSS sky130_fd_pr__nfet_01v8 ad=0p pd=0u as=0p ps=0u w=3e+06u l=4.8e+06u
X29 diff_fold_casc_ota_1/vbias2 diff_fold_casc_ota_1/vbias2 diff_fold_casc_ota_1/vbias2 VSS sky130_fd_pr__nfet_01v8_lvt ad=0p pd=0u as=0p ps=0u w=3e+06u l=4.8e+06u
X30 VDD VDD vom VDD sky130_fd_pr__pfet_01v8_hvt ad=0p pd=0u as=0p ps=0u w=2e+06u l=1e+06u
X31 diff_fold_casc_ota_0/vfoldp vim1 diff_fold_casc_ota_0/vtail_casc VSS sky130_fd_pr__nfet_01v8_lvt ad=0p pd=0u as=0p ps=0u w=3e+06u l=1.2e+06u
X32 a_15554_5588# diff_fold_casc_ota_0/vbias4 VSS VSS sky130_fd_pr__nfet_01v8 ad=0p pd=0u as=0p ps=0u w=3e+06u l=4.8e+06u
X33 diff_fold_casc_ota_1/vfoldp vim2 diff_fold_casc_ota_1/vtail_casc VSS sky130_fd_pr__nfet_01v8_lvt ad=0p pd=0u as=0p ps=0u w=3e+06u l=1.2e+06u
X34 vip1 txgate_5/txb vincm VDD sky130_fd_pr__pfet_01v8_hvt ad=0p pd=0u as=0p ps=0u w=2e+06u l=1e+06u
X35 VSS diff_fold_casc_ota_0/vbias4 diff_fold_casc_ota_0/vcascnm VSS sky130_fd_pr__nfet_01v8 ad=0p pd=0u as=0p ps=0u w=3e+06u l=4.8e+06u
X36 diff_fold_casc_ota_1/vtail_casc diff_fold_casc_ota_1/vbias4 VSS VSS sky130_fd_pr__nfet_01v8 ad=0p pd=0u as=0p ps=0u w=3e+06u l=4.8e+06u
X37 vom diff_fold_casc_ota_1/vbias2 diff_fold_casc_ota_1/vfoldm VDD sky130_fd_pr__pfet_01v8 ad=0p pd=0u as=0p ps=0u w=3e+06u l=4.8e+06u
X38 VSS diff_fold_casc_ota_0/vbias4 diff_fold_casc_ota_0/vtail_casc VSS sky130_fd_pr__nfet_01v8 ad=0p pd=0u as=0p ps=0u w=3e+06u l=4.8e+06u
X39 diff_fold_casc_ota_0/vcmn_casc_tail1 vocm diff_fold_casc_ota_0/vcmcn1_casc VSS sky130_fd_pr__nfet_01v8_lvt ad=0p pd=0u as=0p ps=0u w=1e+06u l=800000u
X40 VSS ibiasn1 ibiasn1 VSS sky130_fd_pr__nfet_01v8 ad=0p pd=0u as=0p ps=0u w=3e+06u l=4.8e+06u
X41 diff_fold_casc_ota_0/vbias3 diff_fold_casc_ota_0/M3d diff_fold_casc_ota_0/M3d VSS sky130_fd_pr__nfet_01v8 ad=0p pd=0u as=0p ps=0u w=3e+06u l=4.8e+06u
X42 vop1 VSS sky130_fd_pr__cap_mim_m3_1 l=1e+07u w=1e+07u
X43 VSS VSS vip2 VSS sky130_fd_pr__nfet_01v8 ad=0p pd=0u as=0p ps=0u w=1e+06u l=1e+06u
X44 diff_fold_casc_ota_1/vbias2 diff_fold_casc_ota_1/vbias2 diff_fold_casc_ota_1/vbias2 VSS sky130_fd_pr__nfet_01v8_lvt ad=0p pd=0u as=0p ps=0u w=3e+06u l=4.8e+06u
X45 venm2 txgate_2/txb vom VDD sky130_fd_pr__pfet_01v8_hvt ad=0p pd=0u as=0p ps=0u w=2e+06u l=1e+06u
X46 VDD gain_ctrl_0 txgate_1/txb VDD sky130_fd_pr__pfet_01v8_hvt ad=0p pd=0u as=0p ps=0u w=1e+06u l=150000u
X47 vim2 txgate_6/txb vop1 VDD sky130_fd_pr__pfet_01v8_hvt ad=0p pd=0u as=0p ps=0u w=2e+06u l=1e+06u
X48 diff_fold_casc_ota_1/vtail_casc vip2 diff_fold_casc_ota_1/vfoldm VSS sky130_fd_pr__nfet_01v8_lvt ad=0p pd=0u as=0p ps=0u w=3e+06u l=1.2e+06u
X49 diff_fold_casc_ota_1/vfoldp diff_fold_casc_ota_1/vbias2 vop VDD sky130_fd_pr__pfet_01v8 ad=0p pd=0u as=0p ps=0u w=3e+06u l=4.8e+06u
X50 VDD diff_fold_casc_ota_1/vbias1 diff_fold_casc_ota_1/vfoldm VDD sky130_fd_pr__pfet_01v8_lvt ad=0p pd=0u as=0p ps=0u w=3e+06u l=4.8e+06u
X51 diff_fold_casc_ota_1/M2d diff_fold_casc_ota_1/M2d diff_fold_casc_ota_1/M2d VDD sky130_fd_pr__pfet_01v8_lvt ad=0p pd=0u as=0p ps=0u w=3e+06u l=4.8e+06u
X52 VSS diff_fold_casc_ota_1/vcmc_casc diff_fold_casc_ota_1/vtail_casc VSS sky130_fd_pr__nfet_01v8 ad=0p pd=0u as=0p ps=0u w=3e+06u l=4.8e+06u
X53 VDD diff_fold_casc_ota_0/vbias1 diff_fold_casc_ota_0/vfoldp VDD sky130_fd_pr__pfet_01v8_lvt ad=0p pd=0u as=0p ps=0u w=3e+06u l=4.8e+06u
X54 VSS diff_fold_casc_ota_0/vbias4 diff_fold_casc_ota_0/vcascnp VSS sky130_fd_pr__nfet_01v8 ad=0p pd=0u as=0p ps=0u w=3e+06u l=4.8e+06u
X55 diff_fold_casc_ota_0/vtail_casc vip1 diff_fold_casc_ota_0/vfoldm VSS sky130_fd_pr__nfet_01v8_lvt ad=0p pd=0u as=0p ps=0u w=3e+06u l=1.2e+06u
X56 diff_fold_casc_ota_1/M3d diff_fold_casc_ota_1/M3d diff_fold_casc_ota_1/vbias3 VSS sky130_fd_pr__nfet_01v8 ad=0p pd=0u as=0p ps=0u w=3e+06u l=4.8e+06u
X57 diff_fold_casc_ota_1/vbias4 diff_fold_casc_ota_1/vbias3 a_69554_5588# VSS sky130_fd_pr__nfet_01v8 ad=0p pd=0u as=0p ps=0u w=3e+06u l=4.8e+06u
X58 diff_fold_casc_ota_0/M2d diff_fold_casc_ota_0/vbias2 diff_fold_casc_ota_0/M3d VDD sky130_fd_pr__pfet_01v8 ad=0p pd=0u as=0p ps=0u w=3e+06u l=4.8e+06u
X59 diff_fold_casc_ota_1/vcascnm diff_fold_casc_ota_1/vbias4 VSS VSS sky130_fd_pr__nfet_01v8 ad=0p pd=0u as=0p ps=0u w=3e+06u l=4.8e+06u
X60 diff_fold_casc_ota_1/M3d diff_fold_casc_ota_1/M3d diff_fold_casc_ota_1/vbias3 VSS sky130_fd_pr__nfet_01v8 ad=0p pd=0u as=0p ps=0u w=3e+06u l=4.8e+06u
X61 diff_fold_casc_ota_0/vbias1 diff_fold_casc_ota_0/vbias1 diff_fold_casc_ota_0/vbias2 VSS sky130_fd_pr__nfet_01v8_lvt ad=0p pd=0u as=0p ps=0u w=3e+06u l=4.8e+06u
X62 diff_fold_casc_ota_0/vfoldp vim1 diff_fold_casc_ota_0/vtail_casc VSS sky130_fd_pr__nfet_01v8_lvt ad=0p pd=0u as=0p ps=0u w=3e+06u l=1.2e+06u
X63 diff_fold_casc_ota_0/vtail_casc vip1 diff_fold_casc_ota_0/vfoldm VSS sky130_fd_pr__nfet_01v8_lvt ad=0p pd=0u as=0p ps=0u w=3e+06u l=1.2e+06u
X64 venp2 vim2 sky130_fd_pr__cap_mim_m3_1 l=8e+06u w=8e+06u
X65 diff_fold_casc_ota_1/vcmcn1_casc vocm diff_fold_casc_ota_1/vcmn_casc_tail1 VSS sky130_fd_pr__nfet_01v8_lvt ad=0p pd=0u as=0p ps=0u w=1e+06u l=800000u
X66 diff_fold_casc_ota_1/vbias1 diff_fold_casc_ota_1/vbias1 diff_fold_casc_ota_1/vbias1 VSS sky130_fd_pr__nfet_01v8_lvt ad=0p pd=0u as=0p ps=0u w=3e+06u l=4.8e+06u
X67 diff_fold_casc_ota_0/vtail_casc diff_fold_casc_ota_0/vtail_casc diff_fold_casc_ota_0/vtail_casc VSS sky130_fd_pr__nfet_01v8 ad=0p pd=0u as=0p ps=0u w=3e+06u l=4.8e+06u
X68 a_69554_5588# diff_fold_casc_ota_1/vbias3 diff_fold_casc_ota_1/vbias4 VSS sky130_fd_pr__nfet_01v8 ad=0p pd=0u as=0p ps=0u w=3e+06u l=4.8e+06u
X69 diff_fold_casc_ota_1/vcascnm diff_fold_casc_ota_1/vbias4 VSS VSS sky130_fd_pr__nfet_01v8 ad=0p pd=0u as=0p ps=0u w=3e+06u l=4.8e+06u
X70 diff_fold_casc_ota_1/M3d diff_fold_casc_ota_1/M3d diff_fold_casc_ota_1/vbias3 VSS sky130_fd_pr__nfet_01v8 ad=0p pd=0u as=0p ps=0u w=3e+06u l=4.8e+06u
X71 VDD VDD VDD VDD sky130_fd_pr__pfet_01v8 ad=0p pd=0u as=0p ps=0u w=3e+06u l=4.8e+06u
X72 vom1 diff_fold_casc_ota_0/vbias3 diff_fold_casc_ota_0/vcascnm VSS sky130_fd_pr__nfet_01v8 ad=0p pd=0u as=0p ps=0u w=3e+06u l=4.8e+06u
X73 vop diff_fold_casc_ota_1/vbias3 diff_fold_casc_ota_1/vcascnp VSS sky130_fd_pr__nfet_01v8 ad=0p pd=0u as=0p ps=0u w=3e+06u l=4.8e+06u
X74 VSS VSS sky130_fd_pr__cap_mim_m3_1 l=2e+06u w=1.2e+07u
X75 diff_fold_casc_ota_1/vcmn_casc_tail2 ibiasn2 VSS VSS sky130_fd_pr__nfet_01v8 ad=0p pd=0u as=0p ps=0u w=3e+06u l=4.8e+06u
X76 diff_fold_casc_ota_1/vfoldm diff_fold_casc_ota_1/vbias1 VDD VDD sky130_fd_pr__pfet_01v8_lvt ad=0p pd=0u as=0p ps=0u w=3e+06u l=4.8e+06u
X77 a_15554_5588# diff_fold_casc_ota_0/vbias4 VSS VSS sky130_fd_pr__nfet_01v8 ad=0p pd=0u as=0p ps=0u w=3e+06u l=4.8e+06u
X78 vop1 vim1 sky130_fd_pr__cap_mim_m3_1 l=8e+06u w=8e+06u
X79 diff_fold_casc_ota_1/vcmc_casc diff_fold_casc_ota_1/vcmc_casc VSS VSS sky130_fd_pr__nfet_01v8 ad=0p pd=0u as=0p ps=0u w=3e+06u l=4.8e+06u
X80 diff_fold_casc_ota_0/vfoldp diff_fold_casc_ota_0/vbias1 VDD VDD sky130_fd_pr__pfet_01v8_lvt ad=0p pd=0u as=0p ps=0u w=3e+06u l=4.8e+06u
X81 diff_fold_casc_ota_1/M2d diff_fold_casc_ota_1/M2d diff_fold_casc_ota_1/M2d VDD sky130_fd_pr__pfet_01v8 ad=0p pd=0u as=0p ps=0u w=3e+06u l=4.8e+06u
X82 diff_fold_casc_ota_1/vcmcn1_casc diff_fold_casc_ota_1/vcmcn1_casc VDD VDD sky130_fd_pr__pfet_01v8 ad=0p pd=0u as=0p ps=0u w=2e+06u l=800000u
X83 VSS VSS sky130_fd_pr__cap_mim_m3_1 l=2e+06u w=1.2e+07u
X84 ibiasn2 ibiasn2 ibiasn2 VSS sky130_fd_pr__nfet_01v8 ad=0p pd=0u as=0p ps=0u w=3e+06u l=4.8e+06u
X85 vom diff_fold_casc_ota_1/vbias2 diff_fold_casc_ota_1/vfoldm VDD sky130_fd_pr__pfet_01v8 ad=0p pd=0u as=0p ps=0u w=3e+06u l=4.8e+06u
X86 diff_fold_casc_ota_1/vcmcn2_casc diff_fold_casc_ota_1/vcmcn2_casc diff_fold_casc_ota_1/vcmcn2_casc VDD sky130_fd_pr__pfet_01v8 ad=0p pd=0u as=0p ps=0u w=2e+06u l=800000u
X87 diff_fold_casc_ota_0/vtail_casc vim1 diff_fold_casc_ota_0/vfoldp VSS sky130_fd_pr__nfet_01v8_lvt ad=0p pd=0u as=0p ps=0u w=3e+06u l=1.2e+06u
X88 VSS VSS sky130_fd_pr__cap_mim_m3_1 l=8e+06u w=2e+06u
X89 VDD diff_fold_casc_ota_0/vcmcn2_casc diff_fold_casc_ota_0/vcmcn2_casc VDD sky130_fd_pr__pfet_01v8 ad=0p pd=0u as=0p ps=0u w=2e+06u l=800000u
X90 VDD diff_fold_casc_ota_0/vcmcn1_casc diff_fold_casc_ota_0/vcmcn1_casc VDD sky130_fd_pr__pfet_01v8 ad=0p pd=0u as=0p ps=0u w=2e+06u l=800000u
X91 diff_fold_casc_ota_1/vfoldm diff_fold_casc_ota_1/vbias1 VDD VDD sky130_fd_pr__pfet_01v8_lvt ad=0p pd=0u as=0p ps=0u w=3e+06u l=4.8e+06u
X92 diff_fold_casc_ota_0/M3d diff_fold_casc_ota_0/M3d diff_fold_casc_ota_0/vbias3 VSS sky130_fd_pr__nfet_01v8 ad=0p pd=0u as=0p ps=0u w=3e+06u l=4.8e+06u
X93 VSS diff_fold_casc_ota_0/vbias4 diff_fold_casc_ota_0/vtail_casc VSS sky130_fd_pr__nfet_01v8 ad=0p pd=0u as=0p ps=0u w=3e+06u l=4.8e+06u
X94 diff_fold_casc_ota_0/vcmc_casc diff_fold_casc_ota_0/vcmc_casc VSS VSS sky130_fd_pr__nfet_01v8 ad=0p pd=0u as=0p ps=0u w=3e+06u l=4.8e+06u
X95 diff_fold_casc_ota_1/vbias2 diff_fold_casc_ota_1/vbias1 diff_fold_casc_ota_1/vbias1 VSS sky130_fd_pr__nfet_01v8_lvt ad=0p pd=0u as=0p ps=0u w=3e+06u l=4.8e+06u
X96 vom1 diff_fold_casc_ota_0/vbias3 diff_fold_casc_ota_0/vcascnm VSS sky130_fd_pr__nfet_01v8 ad=0p pd=0u as=0p ps=0u w=3e+06u l=4.8e+06u
X97 diff_fold_casc_ota_0/vtail_casc diff_fold_casc_ota_0/vtail_casc diff_fold_casc_ota_0/vtail_casc VSS sky130_fd_pr__nfet_01v8_lvt ad=0p pd=0u as=0p ps=0u w=3e+06u l=1.2e+06u
X98 VDD VDD VDD VDD sky130_fd_pr__pfet_01v8 ad=0p pd=0u as=0p ps=0u w=3e+06u l=4.8e+06u
X99 diff_fold_casc_ota_0/vcmn_casc_tail2 diff_fold_casc_ota_0/vcmn_casc_tail2 diff_fold_casc_ota_0/vcmn_casc_tail2 VSS sky130_fd_pr__nfet_01v8 ad=0p pd=0u as=0p ps=0u w=3e+06u l=4.8e+06u
X100 vom VDD VDD VDD sky130_fd_pr__pfet_01v8_hvt ad=0p pd=0u as=0p ps=0u w=2e+06u l=1e+06u
X101 diff_fold_casc_ota_1/M6d diff_fold_casc_ota_1/vbias2 diff_fold_casc_ota_1/M13d VDD sky130_fd_pr__pfet_01v8 ad=0p pd=0u as=0p ps=0u w=3e+06u l=4.8e+06u
X102 vip2 vom1 sky130_fd_pr__cap_mim_m3_1 l=8e+06u w=8e+06u
X103 diff_fold_casc_ota_1/M3d diff_fold_casc_ota_1/M3d diff_fold_casc_ota_1/vbias3 VSS sky130_fd_pr__nfet_01v8 ad=0p pd=0u as=0p ps=0u w=3e+06u l=4.8e+06u
X104 VDD diff_fold_casc_ota_1/vbias1 diff_fold_casc_ota_1/vfoldp VDD sky130_fd_pr__pfet_01v8_lvt ad=0p pd=0u as=0p ps=0u w=3e+06u l=4.8e+06u
X105 vop1 diff_fold_casc_ota_0/vbias3 diff_fold_casc_ota_0/vcascnp VSS sky130_fd_pr__nfet_01v8 ad=0p pd=0u as=0p ps=0u w=3e+06u l=4.8e+06u
X106 diff_fold_casc_ota_1/vbias1 diff_fold_casc_ota_1/vbias1 diff_fold_casc_ota_1/vbias2 VSS sky130_fd_pr__nfet_01v8_lvt ad=0p pd=0u as=0p ps=0u w=3e+06u l=4.8e+06u
X107 diff_fold_casc_ota_0/M6d diff_fold_casc_ota_0/vbias1 VDD VDD sky130_fd_pr__pfet_01v8_lvt ad=0p pd=0u as=0p ps=0u w=3e+06u l=4.8e+06u
X108 diff_fold_casc_ota_1/M2d diff_fold_casc_ota_1/vbias1 VDD VDD sky130_fd_pr__pfet_01v8_lvt ad=0p pd=0u as=0p ps=0u w=3e+06u l=4.8e+06u
X109 diff_fold_casc_ota_0/vcascnm diff_fold_casc_ota_0/vbias4 VSS VSS sky130_fd_pr__nfet_01v8 ad=0p pd=0u as=0p ps=0u w=3e+06u l=4.8e+06u
X110 VSS VSS VSS VSS sky130_fd_pr__nfet_01v8 ad=0p pd=0u as=0p ps=0u w=3e+06u l=4.8e+06u
X111 vim2 vop1 sky130_fd_pr__cap_mim_m3_1 l=8e+06u w=8e+06u
X112 diff_fold_casc_ota_1/vcmn_casc_tail2 vom diff_fold_casc_ota_1/vcmcn_casc VSS sky130_fd_pr__nfet_01v8_lvt ad=0p pd=0u as=0p ps=0u w=1e+06u l=800000u
X113 diff_fold_casc_ota_0/vcascnp diff_fold_casc_ota_0/vbias4 VSS VSS sky130_fd_pr__nfet_01v8 ad=0p pd=0u as=0p ps=0u w=3e+06u l=4.8e+06u
X114 VSS diff_fold_casc_ota_1/vbias4 diff_fold_casc_ota_1/vcascnm VSS sky130_fd_pr__nfet_01v8 ad=0p pd=0u as=0p ps=0u w=3e+06u l=4.8e+06u
X115 a_69554_5588# diff_fold_casc_ota_1/vbias4 VSS VSS sky130_fd_pr__nfet_01v8 ad=0p pd=0u as=0p ps=0u w=3e+06u l=4.8e+06u
X116 vincm txgate_4/txb vim1 VDD sky130_fd_pr__pfet_01v8_hvt ad=0p pd=0u as=0p ps=0u w=2e+06u l=1e+06u
X117 diff_fold_casc_ota_0/vbias2 diff_fold_casc_ota_0/vbias1 diff_fold_casc_ota_0/vbias1 VSS sky130_fd_pr__nfet_01v8_lvt ad=0p pd=0u as=0p ps=0u w=3e+06u l=4.8e+06u
X118 diff_fold_casc_ota_0/vtail_casc diff_fold_casc_ota_0/vcmc_casc VSS VSS sky130_fd_pr__nfet_01v8 ad=0p pd=0u as=0p ps=0u w=3e+06u l=4.8e+06u
X119 vom1 txgate_7/txb vip2 VDD sky130_fd_pr__pfet_01v8_hvt ad=0p pd=0u as=0p ps=0u w=2e+06u l=1e+06u
X120 diff_fold_casc_ota_1/vcmcn_casc diff_fold_casc_ota_1/vcmcn_casc VDD VDD sky130_fd_pr__pfet_01v8 ad=0p pd=0u as=0p ps=0u w=2e+06u l=800000u
X121 diff_fold_casc_ota_0/vbias2 diff_fold_casc_ota_0/vbias1 diff_fold_casc_ota_0/vbias1 VSS sky130_fd_pr__nfet_01v8_lvt ad=0p pd=0u as=0p ps=0u w=3e+06u l=4.8e+06u
X122 diff_fold_casc_ota_0/vfoldp vim1 diff_fold_casc_ota_0/vtail_casc VSS sky130_fd_pr__nfet_01v8_lvt ad=0p pd=0u as=0p ps=0u w=3e+06u l=1.2e+06u
X123 venp1 vop1 sky130_fd_pr__cap_mim_m3_1 l=8e+06u w=8e+06u
X124 VDD diff_fold_casc_ota_0/vcmcn_casc diff_fold_casc_ota_0/vcmcn_casc VDD sky130_fd_pr__pfet_01v8 ad=0p pd=0u as=0p ps=0u w=2e+06u l=800000u
X125 diff_fold_casc_ota_1/vcmc_casc diff_fold_casc_ota_1/vcmc_casc diff_fold_casc_ota_1/vcmc_casc VDD sky130_fd_pr__pfet_01v8 ad=0p pd=0u as=0p ps=0u w=2e+06u l=800000u
X126 VSS diff_fold_casc_ota_0/vbias4 a_15554_5588# VSS sky130_fd_pr__nfet_01v8 ad=0p pd=0u as=0p ps=0u w=3e+06u l=4.8e+06u
X127 VDD diff_fold_casc_ota_0/vcmcn_casc diff_fold_casc_ota_0/vcmc_casc VDD sky130_fd_pr__pfet_01v8 ad=0p pd=0u as=0p ps=0u w=2e+06u l=800000u
X128 vop diff_fold_casc_ota_1/vbias3 diff_fold_casc_ota_1/vcascnp VSS sky130_fd_pr__nfet_01v8 ad=0p pd=0u as=0p ps=0u w=3e+06u l=4.8e+06u
X129 VSS VSS sky130_fd_pr__cap_mim_m3_1 l=8e+06u w=2e+06u
X130 venm1 vom1 sky130_fd_pr__cap_mim_m3_1 l=8e+06u w=8e+06u
X131 vom VSS sky130_fd_pr__cap_mim_m3_1 l=1e+07u w=1e+07u
X132 diff_fold_casc_ota_0/M2d diff_fold_casc_ota_0/vbias2 diff_fold_casc_ota_0/M3d VDD sky130_fd_pr__pfet_01v8 ad=0p pd=0u as=0p ps=0u w=3e+06u l=4.8e+06u
X133 diff_fold_casc_ota_0/vbias2 diff_fold_casc_ota_0/vbias1 diff_fold_casc_ota_0/vbias1 VSS sky130_fd_pr__nfet_01v8_lvt ad=0p pd=0u as=0p ps=0u w=3e+06u l=4.8e+06u
X134 VSS diff_fold_casc_ota_1/vbias4 diff_fold_casc_ota_1/vcascnp VSS sky130_fd_pr__nfet_01v8 ad=0p pd=0u as=0p ps=0u w=3e+06u l=4.8e+06u
X135 VSS diff_fold_casc_ota_0/vbias4 diff_fold_casc_ota_0/vcascnp VSS sky130_fd_pr__nfet_01v8 ad=0p pd=0u as=0p ps=0u w=3e+06u l=4.8e+06u
X136 diff_fold_casc_ota_0/vcmn_casc_tail1 ibiasn1 VSS VSS sky130_fd_pr__nfet_01v8 ad=0p pd=0u as=0p ps=0u w=3e+06u l=4.8e+06u
X137 diff_fold_casc_ota_0/M3d diff_fold_casc_ota_0/M3d diff_fold_casc_ota_0/vbias3 VSS sky130_fd_pr__nfet_01v8 ad=0p pd=0u as=0p ps=0u w=3e+06u l=4.8e+06u
X138 diff_fold_casc_ota_1/vcascnp diff_fold_casc_ota_1/vbias3 vop VSS sky130_fd_pr__nfet_01v8 ad=0p pd=0u as=0p ps=0u w=3e+06u l=4.8e+06u
X139 VSS VSS sky130_fd_pr__cap_mim_m3_1 l=1e+07u w=2e+06u
X140 VSS diff_fold_casc_ota_1/vcmc_casc diff_fold_casc_ota_1/vtail_casc VSS sky130_fd_pr__nfet_01v8 ad=0p pd=0u as=0p ps=0u w=3e+06u l=4.8e+06u
X141 VDD diff_fold_casc_ota_0/vbias1 diff_fold_casc_ota_0/M1d VDD sky130_fd_pr__pfet_01v8_lvt ad=0p pd=0u as=0p ps=0u w=3e+06u l=4.8e+06u
X142 VSS diff_fold_casc_ota_0/vbias4 diff_fold_casc_ota_0/vcascnm VSS sky130_fd_pr__nfet_01v8 ad=0p pd=0u as=0p ps=0u w=3e+06u l=4.8e+06u
X143 venm1 txgate_0/txb vip2 VDD sky130_fd_pr__pfet_01v8_hvt ad=0p pd=0u as=0p ps=0u w=2e+06u l=1e+06u
X144 vom1 diff_fold_casc_ota_0/vbias2 diff_fold_casc_ota_0/vfoldm VDD sky130_fd_pr__pfet_01v8 ad=0p pd=0u as=0p ps=0u w=3e+06u l=4.8e+06u
X145 diff_fold_casc_ota_0/vcmcn1_casc vocm diff_fold_casc_ota_0/vcmn_casc_tail1 VSS sky130_fd_pr__nfet_01v8_lvt ad=0p pd=0u as=0p ps=0u w=1e+06u l=800000u
X146 diff_fold_casc_ota_0/vbias2 ibiasn1 VSS VSS sky130_fd_pr__nfet_01v8 ad=0p pd=0u as=0p ps=0u w=3e+06u l=4.8e+06u
X147 diff_fold_casc_ota_1/vfoldm vip2 diff_fold_casc_ota_1/vtail_casc VSS sky130_fd_pr__nfet_01v8_lvt ad=0p pd=0u as=0p ps=0u w=3e+06u l=1.2e+06u
X148 VDD rst txgate_4/txb VDD sky130_fd_pr__pfet_01v8_hvt ad=0p pd=0u as=0p ps=0u w=1e+06u l=150000u
X149 VSS VSS vim2 VSS sky130_fd_pr__nfet_01v8 ad=0p pd=0u as=0p ps=0u w=1e+06u l=1e+06u
X150 diff_fold_casc_ota_1/vcascnm diff_fold_casc_ota_1/vbias3 vom VSS sky130_fd_pr__nfet_01v8 ad=0p pd=0u as=0p ps=0u w=3e+06u l=4.8e+06u
X151 VSS diff_fold_casc_ota_0/vcmc_casc diff_fold_casc_ota_0/vcmc_casc VSS sky130_fd_pr__nfet_01v8 ad=0p pd=0u as=0p ps=0u w=3e+06u l=4.8e+06u
X152 VDD rst txgate_6/txb VDD sky130_fd_pr__pfet_01v8_hvt ad=0p pd=0u as=0p ps=0u w=1e+06u l=150000u
X153 diff_fold_casc_ota_1/vbias1 diff_fold_casc_ota_1/vbias1 diff_fold_casc_ota_1/vbias2 VSS sky130_fd_pr__nfet_01v8_lvt ad=0p pd=0u as=0p ps=0u w=3e+06u l=4.8e+06u
X154 vip2 vom1 sky130_fd_pr__cap_mim_m3_1 l=8e+06u w=8e+06u
X155 VSS VSS VSS VSS sky130_fd_pr__nfet_01v8 ad=0p pd=0u as=0p ps=0u w=3e+06u l=4.8e+06u
X156 diff_fold_casc_ota_1/M6d diff_fold_casc_ota_1/M6d diff_fold_casc_ota_1/M6d VDD sky130_fd_pr__pfet_01v8_lvt ad=0p pd=0u as=0p ps=0u w=3e+06u l=4.8e+06u
X157 vop diff_fold_casc_ota_1/vbias2 diff_fold_casc_ota_1/vfoldp VDD sky130_fd_pr__pfet_01v8 ad=0p pd=0u as=0p ps=0u w=3e+06u l=4.8e+06u
X158 VDD diff_fold_casc_ota_0/vbias1 diff_fold_casc_ota_0/vfoldm VDD sky130_fd_pr__pfet_01v8_lvt ad=0p pd=0u as=0p ps=0u w=3e+06u l=4.8e+06u
X159 VDD diff_fold_casc_ota_0/vbias1 diff_fold_casc_ota_0/M2d VDD sky130_fd_pr__pfet_01v8_lvt ad=0p pd=0u as=0p ps=0u w=3e+06u l=4.8e+06u
X160 diff_fold_casc_ota_1/M3d VDD VDD VDD sky130_fd_pr__pfet_01v8 ad=0p pd=0u as=0p ps=0u w=3e+06u l=4.8e+06u
X161 VSS VSS sky130_fd_pr__cap_mim_m3_1 l=2e+06u w=8e+06u
X162 VDD VDD diff_fold_casc_ota_1/M6d VDD sky130_fd_pr__pfet_01v8 ad=0p pd=0u as=0p ps=0u w=3e+06u l=4.8e+06u
X163 a_69554_5588# diff_fold_casc_ota_1/vbias3 diff_fold_casc_ota_1/vbias4 VSS sky130_fd_pr__nfet_01v8 ad=0p pd=0u as=0p ps=0u w=3e+06u l=4.8e+06u
X164 VSS VSS sky130_fd_pr__cap_mim_m3_1 l=1e+07u w=2e+06u
X165 diff_fold_casc_ota_0/vcascnp diff_fold_casc_ota_0/vbias4 VSS VSS sky130_fd_pr__nfet_01v8 ad=0p pd=0u as=0p ps=0u w=3e+06u l=4.8e+06u
X166 diff_fold_casc_ota_0/vtail_casc diff_fold_casc_ota_0/vcmc_casc VSS VSS sky130_fd_pr__nfet_01v8 ad=0p pd=0u as=0p ps=0u w=3e+06u l=4.8e+06u
X167 diff_fold_casc_ota_0/vcascnm diff_fold_casc_ota_0/vbias4 VSS VSS sky130_fd_pr__nfet_01v8 ad=0p pd=0u as=0p ps=0u w=3e+06u l=4.8e+06u
X168 VSS VSS sky130_fd_pr__cap_mim_m3_1 l=2e+06u w=1e+07u
X169 diff_fold_casc_ota_1/M3d diff_fold_casc_ota_1/M3d diff_fold_casc_ota_1/vbias3 VSS sky130_fd_pr__nfet_01v8 ad=0p pd=0u as=0p ps=0u w=3e+06u l=4.8e+06u
X170 diff_fold_casc_ota_1/vfoldm diff_fold_casc_ota_1/vbias2 vom VDD sky130_fd_pr__pfet_01v8 ad=0p pd=0u as=0p ps=0u w=3e+06u l=4.8e+06u
X171 diff_fold_casc_ota_1/vcmcn1_casc diff_fold_casc_ota_1/vcmcn1_casc VDD VDD sky130_fd_pr__pfet_01v8 ad=0p pd=0u as=0p ps=0u w=2e+06u l=800000u
X172 diff_fold_casc_ota_0/vfoldm diff_fold_casc_ota_0/vfoldm diff_fold_casc_ota_0/vfoldm VSS sky130_fd_pr__nfet_01v8_lvt ad=0p pd=0u as=0p ps=0u w=3e+06u l=1.2e+06u
X173 vip2 txgate_0/txb venm1 VDD sky130_fd_pr__pfet_01v8_hvt ad=0p pd=0u as=0p ps=0u w=2e+06u l=1e+06u
X174 diff_fold_casc_ota_1/vbias3 diff_fold_casc_ota_1/M3d diff_fold_casc_ota_1/M3d VSS sky130_fd_pr__nfet_01v8 ad=0p pd=0u as=0p ps=0u w=3e+06u l=4.8e+06u
X175 diff_fold_casc_ota_0/vcmcn2_casc diff_fold_casc_ota_0/vcmcn2_casc diff_fold_casc_ota_0/vcmcn2_casc VDD sky130_fd_pr__pfet_01v8 ad=0p pd=0u as=0p ps=0u w=2e+06u l=800000u
X176 diff_fold_casc_ota_1/M2d diff_fold_casc_ota_1/vbias2 diff_fold_casc_ota_1/M3d VDD sky130_fd_pr__pfet_01v8 ad=0p pd=0u as=0p ps=0u w=3e+06u l=4.8e+06u
X177 VSS VSS sky130_fd_pr__cap_mim_m3_1 l=2e+06u w=1.2e+07u
X178 diff_fold_casc_ota_1/vbias3 diff_fold_casc_ota_1/M3d diff_fold_casc_ota_1/M3d VSS sky130_fd_pr__nfet_01v8 ad=0p pd=0u as=0p ps=0u w=3e+06u l=4.8e+06u
X179 diff_fold_casc_ota_1/vfoldp diff_fold_casc_ota_1/vbias1 VDD VDD sky130_fd_pr__pfet_01v8_lvt ad=0p pd=0u as=0p ps=0u w=3e+06u l=4.8e+06u
X180 diff_fold_casc_ota_1/vtail_casc vim2 diff_fold_casc_ota_1/vfoldp VSS sky130_fd_pr__nfet_01v8_lvt ad=0p pd=0u as=0p ps=0u w=3e+06u l=1.2e+06u
X181 VSS diff_fold_casc_ota_1/vcmc_casc diff_fold_casc_ota_1/vcmc_casc VSS sky130_fd_pr__nfet_01v8 ad=0p pd=0u as=0p ps=0u w=3e+06u l=4.8e+06u
X182 diff_fold_casc_ota_0/vfoldm diff_fold_casc_ota_0/vbias1 VDD VDD sky130_fd_pr__pfet_01v8_lvt ad=0p pd=0u as=0p ps=0u w=3e+06u l=4.8e+06u
X183 VSS diff_fold_casc_ota_0/vbias4 a_15554_5588# VSS sky130_fd_pr__nfet_01v8 ad=0p pd=0u as=0p ps=0u w=3e+06u l=4.8e+06u
X184 diff_fold_casc_ota_0/vcmn_casc_tail2 vocm diff_fold_casc_ota_0/vcmcn2_casc VSS sky130_fd_pr__nfet_01v8_lvt ad=0p pd=0u as=0p ps=0u w=1e+06u l=800000u
X185 diff_fold_casc_ota_0/vbias4 diff_fold_casc_ota_0/vbias3 a_15554_5588# VSS sky130_fd_pr__nfet_01v8 ad=0p pd=0u as=0p ps=0u w=3e+06u l=4.8e+06u
X186 diff_fold_casc_ota_1/vtail_casc vim2 diff_fold_casc_ota_1/vfoldp VSS sky130_fd_pr__nfet_01v8_lvt ad=0p pd=0u as=0p ps=0u w=3e+06u l=1.2e+06u
X187 diff_fold_casc_ota_0/M2d diff_fold_casc_ota_0/M2d diff_fold_casc_ota_0/M2d VDD sky130_fd_pr__pfet_01v8 ad=0p pd=0u as=0p ps=0u w=3e+06u l=4.8e+06u
X188 diff_fold_casc_ota_0/vcmcn1_casc diff_fold_casc_ota_0/vcmcn1_casc VDD VDD sky130_fd_pr__pfet_01v8 ad=0p pd=0u as=0p ps=0u w=2e+06u l=800000u
X189 vom1 diff_fold_casc_ota_0/vbias2 diff_fold_casc_ota_0/vfoldm VDD sky130_fd_pr__pfet_01v8 ad=0p pd=0u as=0p ps=0u w=3e+06u l=4.8e+06u
X190 diff_fold_casc_ota_0/vcmcn2_casc diff_fold_casc_ota_0/vcmcn2_casc diff_fold_casc_ota_0/vcmcn2_casc VDD sky130_fd_pr__pfet_01v8 ad=0p pd=0u as=0p ps=0u w=2e+06u l=800000u
X191 diff_fold_casc_ota_1/vfoldp diff_fold_casc_ota_1/vbias1 VDD VDD sky130_fd_pr__pfet_01v8_lvt ad=0p pd=0u as=0p ps=0u w=3e+06u l=4.8e+06u
X192 diff_fold_casc_ota_0/vbias2 diff_fold_casc_ota_0/vbias1 diff_fold_casc_ota_0/vbias1 VSS sky130_fd_pr__nfet_01v8_lvt ad=0p pd=0u as=0p ps=0u w=3e+06u l=4.8e+06u
X193 vop1 VSS sky130_fd_pr__cap_mim_m3_1 l=1e+07u w=1e+07u
X194 diff_fold_casc_ota_1/vfoldp vim2 diff_fold_casc_ota_1/vtail_casc VSS sky130_fd_pr__nfet_01v8_lvt ad=0p pd=0u as=0p ps=0u w=3e+06u l=1.2e+06u
X195 vom1 VSS VSS VSS sky130_fd_pr__nfet_01v8 ad=0p pd=0u as=0p ps=0u w=1e+06u l=1e+06u
X196 diff_fold_casc_ota_0/vbias1 diff_fold_casc_ota_0/vbias1 diff_fold_casc_ota_0/vbias1 VSS sky130_fd_pr__nfet_01v8_lvt ad=0p pd=0u as=0p ps=0u w=3e+06u l=4.8e+06u
X197 a_15554_5588# diff_fold_casc_ota_0/vbias4 VSS VSS sky130_fd_pr__nfet_01v8 ad=0p pd=0u as=0p ps=0u w=3e+06u l=4.8e+06u
X198 diff_fold_casc_ota_0/M3d diff_fold_casc_ota_0/M3d diff_fold_casc_ota_0/vbias3 VSS sky130_fd_pr__nfet_01v8 ad=0p pd=0u as=0p ps=0u w=3e+06u l=4.8e+06u
X199 vom vom vom VSS sky130_fd_pr__nfet_01v8 ad=0p pd=0u as=0p ps=0u w=3e+06u l=4.8e+06u
X200 diff_fold_casc_ota_1/vcascnp diff_fold_casc_ota_1/vbias4 VSS VSS sky130_fd_pr__nfet_01v8 ad=0p pd=0u as=0p ps=0u w=3e+06u l=4.8e+06u
X201 VDD VDD VDD VDD sky130_fd_pr__pfet_01v8 ad=0p pd=0u as=0p ps=0u w=3e+06u l=4.8e+06u
X202 VSS diff_fold_casc_ota_0/vbias4 diff_fold_casc_ota_0/vcascnp VSS sky130_fd_pr__nfet_01v8 ad=0p pd=0u as=0p ps=0u w=3e+06u l=4.8e+06u
X203 diff_fold_casc_ota_0/vbias3 diff_fold_casc_ota_0/M3d diff_fold_casc_ota_0/M3d VSS sky130_fd_pr__nfet_01v8 ad=0p pd=0u as=0p ps=0u w=3e+06u l=4.8e+06u
X204 VSS VSS sky130_fd_pr__cap_mim_m3_1 l=2e+06u w=1e+07u
X205 diff_fold_casc_ota_1/vbias3 diff_fold_casc_ota_1/M3d diff_fold_casc_ota_1/M3d VSS sky130_fd_pr__nfet_01v8 ad=0p pd=0u as=0p ps=0u w=3e+06u l=4.8e+06u
X206 diff_fold_casc_ota_0/M6d diff_fold_casc_ota_0/vbias2 diff_fold_casc_ota_0/M13d VDD sky130_fd_pr__pfet_01v8 ad=0p pd=0u as=0p ps=0u w=3e+06u l=4.8e+06u
X207 VDD diff_fold_casc_ota_1/vbias1 diff_fold_casc_ota_1/vfoldm VDD sky130_fd_pr__pfet_01v8_lvt ad=0p pd=0u as=0p ps=0u w=3e+06u l=4.8e+06u
X208 diff_fold_casc_ota_1/vcmcn_casc diff_fold_casc_ota_1/vcmcn_casc VDD VDD sky130_fd_pr__pfet_01v8 ad=0p pd=0u as=0p ps=0u w=2e+06u l=800000u
X209 diff_fold_casc_ota_0/vtail_casc diff_fold_casc_ota_0/vtail_casc diff_fold_casc_ota_0/vtail_casc VSS sky130_fd_pr__nfet_01v8_lvt ad=0p pd=0u as=0p ps=0u w=3e+06u l=1.2e+06u
X210 diff_fold_casc_ota_1/vcmcn2_casc vocm diff_fold_casc_ota_1/vcmn_casc_tail2 VSS sky130_fd_pr__nfet_01v8_lvt ad=0p pd=0u as=0p ps=0u w=1e+06u l=800000u
X211 diff_fold_casc_ota_0/M2d diff_fold_casc_ota_0/vbias1 VDD VDD sky130_fd_pr__pfet_01v8_lvt ad=0p pd=0u as=0p ps=0u w=3e+06u l=4.8e+06u
X212 VDD diff_fold_casc_ota_0/vbias1 diff_fold_casc_ota_0/vfoldp VDD sky130_fd_pr__pfet_01v8_lvt ad=0p pd=0u as=0p ps=0u w=3e+06u l=4.8e+06u
X213 diff_fold_casc_ota_0/vcmc_casc diff_fold_casc_ota_0/vcmc_casc diff_fold_casc_ota_0/vcmc_casc VDD sky130_fd_pr__pfet_01v8 ad=0p pd=0u as=0p ps=0u w=2e+06u l=800000u
X214 diff_fold_casc_ota_1/vbias2 diff_fold_casc_ota_1/vbias1 diff_fold_casc_ota_1/vbias1 VSS sky130_fd_pr__nfet_01v8_lvt ad=0p pd=0u as=0p ps=0u w=3e+06u l=4.8e+06u
X215 vom vom vom VDD sky130_fd_pr__pfet_01v8 ad=0p pd=0u as=0p ps=0u w=3e+06u l=4.8e+06u
X216 diff_fold_casc_ota_1/vbias3 diff_fold_casc_ota_1/M3d diff_fold_casc_ota_1/M3d VSS sky130_fd_pr__nfet_01v8 ad=0p pd=0u as=0p ps=0u w=3e+06u l=4.8e+06u
X217 VSS VSS sky130_fd_pr__cap_mim_m3_1 l=2e+06u w=1e+07u
X218 VSS diff_fold_casc_ota_1/vbias4 diff_fold_casc_ota_1/vtail_casc VSS sky130_fd_pr__nfet_01v8 ad=0p pd=0u as=0p ps=0u w=3e+06u l=4.8e+06u
X219 VSS diff_fold_casc_ota_0/vbias4 diff_fold_casc_ota_0/vcascnm VSS sky130_fd_pr__nfet_01v8 ad=0p pd=0u as=0p ps=0u w=3e+06u l=4.8e+06u
X220 diff_fold_casc_ota_0/vtail_casc vim1 diff_fold_casc_ota_0/vfoldp VSS sky130_fd_pr__nfet_01v8_lvt ad=0p pd=0u as=0p ps=0u w=3e+06u l=1.2e+06u
X221 diff_fold_casc_ota_1/vbias3 diff_fold_casc_ota_1/M3d diff_fold_casc_ota_1/M3d VSS sky130_fd_pr__nfet_01v8 ad=0p pd=0u as=0p ps=0u w=3e+06u l=4.8e+06u
X222 diff_fold_casc_ota_0/vbias3 diff_fold_casc_ota_0/M3d diff_fold_casc_ota_0/M3d VSS sky130_fd_pr__nfet_01v8 ad=0p pd=0u as=0p ps=0u w=3e+06u l=4.8e+06u
X223 diff_fold_casc_ota_1/vcascnm diff_fold_casc_ota_1/vbias3 vom VSS sky130_fd_pr__nfet_01v8 ad=0p pd=0u as=0p ps=0u w=3e+06u l=4.8e+06u
X224 diff_fold_casc_ota_1/vbias2 diff_fold_casc_ota_1/vbias1 diff_fold_casc_ota_1/vbias1 VSS sky130_fd_pr__nfet_01v8_lvt ad=0p pd=0u as=0p ps=0u w=3e+06u l=4.8e+06u
X225 VSS VSS sky130_fd_pr__cap_mim_m3_1 l=8e+06u w=2e+06u
X226 diff_fold_casc_ota_1/vcmcn_casc diff_fold_casc_ota_1/vcmcn_casc diff_fold_casc_ota_1/vcmcn_casc VSS sky130_fd_pr__nfet_01v8_lvt ad=0p pd=0u as=0p ps=0u w=1e+06u l=800000u