* NGSPICE file created from sample_and_hold_flat.ext - technology: sky130A

.subckt sample_and_hold_flat vin clk VDD VSS ibiasn vout vhold
X0 se_fold_casc_wide_swing_ota_0/vbias3 se_fold_casc_wide_swing_ota_0/M8d se_fold_casc_wide_swing_ota_0/M8d VSS sky130_fd_pr__nfet_01v8 ad=0p pd=0u as=0p ps=0u w=3e+06u l=4.8e+06u
X1 VSS VSS sky130_fd_pr__cap_mim_m3_2 l=3.1e+07u w=2e+06u
X2 se_fold_casc_wide_swing_ota_0/vcascpm se_fold_casc_wide_swing_ota_0/vbias2 se_fold_casc_wide_swing_ota_0/vmirror VDD sky130_fd_pr__pfet_01v8 ad=0p pd=0u as=0p ps=0u w=3e+06u l=4.8e+06u
X3 se_fold_casc_wide_swing_ota_0/vcascnp se_fold_casc_wide_swing_ota_0/vcascnp se_fold_casc_wide_swing_ota_0/vcascnp VSS sky130_fd_pr__nfet_01v8 ad=0p pd=0u as=0p ps=0u w=3e+06u l=4.8e+06u
X4 vout se_fold_casc_wide_swing_ota_0/vbias3 se_fold_casc_wide_swing_ota_0/vcascnp VSS sky130_fd_pr__nfet_01v8 ad=0p pd=0u as=0p ps=0u w=3e+06u l=4.8e+06u
X5 se_fold_casc_wide_swing_ota_0/vcascnm vhold se_fold_casc_wide_swing_ota_0/vtail_cascp VDD sky130_fd_pr__pfet_01v8_lvt ad=0p pd=0u as=0p ps=0u w=3e+06u l=4.8e+06u
X6 VSS ibiasn se_fold_casc_wide_swing_ota_0/vbias2 VSS sky130_fd_pr__nfet_01v8 ad=0p pd=0u as=0p ps=0u w=3e+06u l=4.8e+06u
X7 VDD VDD VDD VDD sky130_fd_pr__pfet_01v8_lvt ad=0p pd=0u as=0p ps=0u w=3e+06u l=4.8e+06u
X8 se_fold_casc_wide_swing_ota_0/vtail_cascn se_fold_casc_wide_swing_ota_0/vtail_cascn se_fold_casc_wide_swing_ota_0/vtail_cascn VSS sky130_fd_pr__nfet_01v8_lvt ad=0p pd=0u as=0p ps=0u w=3e+06u l=4.8e+06u
X9 se_fold_casc_wide_swing_ota_0/vbias1 se_fold_casc_wide_swing_ota_0/vbias1 se_fold_casc_wide_swing_ota_0/vbias1 VSS sky130_fd_pr__nfet_01v8_lvt ad=0p pd=0u as=0p ps=0u w=3e+06u l=4.8e+06u
X10 se_fold_casc_wide_swing_ota_0/M8d se_fold_casc_wide_swing_ota_0/M8d se_fold_casc_wide_swing_ota_0/vbias3 VSS sky130_fd_pr__nfet_01v8 ad=0p pd=0u as=0p ps=0u w=3e+06u l=4.8e+06u
X11 VSS se_fold_casc_wide_swing_ota_0/vbias4 se_fold_casc_wide_swing_ota_0/vtail_cascn VSS sky130_fd_pr__nfet_01v8 ad=0p pd=0u as=0p ps=0u w=3e+06u l=4.8e+06u
X12 se_fold_casc_wide_swing_ota_0/vbias1 se_fold_casc_wide_swing_ota_0/vbias1 se_fold_casc_wide_swing_ota_0/vbias2 VSS sky130_fd_pr__nfet_01v8_lvt ad=0p pd=0u as=0p ps=0u w=3e+06u l=4.8e+06u
X13 VSS se_fold_casc_wide_swing_ota_0/vbias4 a_21644_2848# VSS sky130_fd_pr__nfet_01v8 ad=0p pd=0u as=0p ps=0u w=3e+06u l=4.8e+06u
X14 vout se_fold_casc_wide_swing_ota_0/vbias3 se_fold_casc_wide_swing_ota_0/vcascnp VSS sky130_fd_pr__nfet_01v8 ad=0p pd=0u as=0p ps=0u w=3e+06u l=4.8e+06u
X15 se_fold_casc_wide_swing_ota_0/vcascpm se_fold_casc_wide_swing_ota_0/vcascpm se_fold_casc_wide_swing_ota_0/vcascpm VDD sky130_fd_pr__pfet_01v8_lvt ad=0p pd=0u as=0p ps=0u w=3e+06u l=4.8e+06u
X16 se_fold_casc_wide_swing_ota_0/M8d se_fold_casc_wide_swing_ota_0/M8d se_fold_casc_wide_swing_ota_0/vbias3 VSS sky130_fd_pr__nfet_01v8 ad=0p pd=0u as=0p ps=0u w=3e+06u l=4.8e+06u
X17 VDD VDD se_fold_casc_wide_swing_ota_0/M13d VDD sky130_fd_pr__pfet_01v8 ad=0p pd=0u as=0p ps=0u w=3e+06u l=4.8e+06u
X18 VSS se_fold_casc_wide_swing_ota_0/vbias4 a_21644_2848# VSS sky130_fd_pr__nfet_01v8 ad=0p pd=0u as=0p ps=0u w=3e+06u l=4.8e+06u
X19 se_fold_casc_wide_swing_ota_0/vcascpm se_fold_casc_wide_swing_ota_0/vcascpm se_fold_casc_wide_swing_ota_0/vcascpm VDD sky130_fd_pr__pfet_01v8_lvt ad=0p pd=0u as=0p ps=0u w=3e+06u l=4.8e+06u
X20 se_fold_casc_wide_swing_ota_0/vcascpp VDD VDD VDD sky130_fd_pr__pfet_01v8 ad=0p pd=0u as=0p ps=0u w=3e+06u l=4.8e+06u
X21 VSS VSS sky130_fd_pr__cap_mim_m3_1 l=1e+07u w=2e+06u
X22 se_fold_casc_wide_swing_ota_0/vbias2 se_fold_casc_wide_swing_ota_0/vbias1 se_fold_casc_wide_swing_ota_0/vbias1 VSS sky130_fd_pr__nfet_01v8_lvt ad=0p pd=0u as=0p ps=0u w=3e+06u l=4.8e+06u
X23 se_fold_casc_wide_swing_ota_0/vbias2 se_fold_casc_wide_swing_ota_0/vbias1 se_fold_casc_wide_swing_ota_0/vbias1 VSS sky130_fd_pr__nfet_01v8_lvt ad=0p pd=0u as=0p ps=0u w=3e+06u l=4.8e+06u
X24 vout se_fold_casc_wide_swing_ota_0/vbias2 se_fold_casc_wide_swing_ota_0/vcascpp VDD sky130_fd_pr__pfet_01v8 ad=0p pd=0u as=0p ps=0u w=3e+06u l=4.8e+06u
X25 se_fold_casc_wide_swing_ota_0/M9d se_fold_casc_wide_swing_ota_0/vbias1 VDD VDD sky130_fd_pr__pfet_01v8_lvt ad=0p pd=0u as=0p ps=0u w=3e+06u l=4.8e+06u
X26 se_fold_casc_wide_swing_ota_0/vcascpm se_fold_casc_wide_swing_ota_0/vcascpm se_fold_casc_wide_swing_ota_0/vcascpm VSS sky130_fd_pr__nfet_01v8_lvt ad=0p pd=0u as=0p ps=0u w=3e+06u l=4.8e+06u
X27 vhold clk vin VSS sky130_fd_pr__nfet_01v8 ad=0p pd=0u as=0p ps=0u w=2e+06u l=1e+06u
X28 VSS se_fold_casc_wide_swing_ota_0/vbias4 se_fold_casc_wide_swing_ota_0/vcascnm VSS sky130_fd_pr__nfet_01v8 ad=0p pd=0u as=0p ps=0u w=3e+06u l=4.8e+06u
X29 se_fold_casc_wide_swing_ota_0/M16d se_fold_casc_wide_swing_ota_0/M16d VSS VSS sky130_fd_pr__nfet_01v8 ad=0p pd=0u as=0p ps=0u w=3e+06u l=4.8e+06u
X30 se_fold_casc_wide_swing_ota_0/vtail_cascn se_fold_casc_wide_swing_ota_0/vbias4 VSS VSS sky130_fd_pr__nfet_01v8 ad=0p pd=0u as=0p ps=0u w=3e+06u l=4.8e+06u
X31 se_fold_casc_wide_swing_ota_0/vbias3 se_fold_casc_wide_swing_ota_0/M8d se_fold_casc_wide_swing_ota_0/M8d VSS sky130_fd_pr__nfet_01v8 ad=0p pd=0u as=0p ps=0u w=3e+06u l=4.8e+06u
X32 se_fold_casc_wide_swing_ota_0/vtail_cascn se_fold_casc_wide_swing_ota_0/vtail_cascn se_fold_casc_wide_swing_ota_0/vtail_cascn VSS sky130_fd_pr__nfet_01v8_lvt ad=0p pd=0u as=0p ps=0u w=3e+06u l=4.8e+06u
X33 vout se_fold_casc_wide_swing_ota_0/vbias3 se_fold_casc_wide_swing_ota_0/vcascnp VSS sky130_fd_pr__nfet_01v8 ad=0p pd=0u as=0p ps=0u w=3e+06u l=4.8e+06u
X34 se_fold_casc_wide_swing_ota_0/vtail_cascn se_fold_casc_wide_swing_ota_0/vbias4 VSS VSS sky130_fd_pr__nfet_01v8 ad=0p pd=0u as=0p ps=0u w=3e+06u l=4.8e+06u
X35 vholdm clk vout VSS sky130_fd_pr__nfet_01v8 ad=0p pd=0u as=0p ps=0u w=2e+06u l=1e+06u
X36 se_fold_casc_wide_swing_ota_0/vbias1 se_fold_casc_wide_swing_ota_0/vbias1 se_fold_casc_wide_swing_ota_0/vbias2 VSS sky130_fd_pr__nfet_01v8_lvt ad=0p pd=0u as=0p ps=0u w=3e+06u l=4.8e+06u
X37 VDD VDD VDD VDD sky130_fd_pr__pfet_01v8_lvt ad=0p pd=0u as=0p ps=0u w=3e+06u l=4.8e+06u
X38 a_21644_2848# se_fold_casc_wide_swing_ota_0/vbias3 se_fold_casc_wide_swing_ota_0/vbias4 VSS sky130_fd_pr__nfet_01v8 ad=0p pd=0u as=0p ps=0u w=3e+06u l=4.8e+06u
X39 se_fold_casc_wide_swing_ota_0/vbias1 se_fold_casc_wide_swing_ota_0/vbias1 se_fold_casc_wide_swing_ota_0/vbias2 VSS sky130_fd_pr__nfet_01v8_lvt ad=0p pd=0u as=0p ps=0u w=3e+06u l=4.8e+06u
X40 VDD se_fold_casc_wide_swing_ota_0/vbias1 se_fold_casc_wide_swing_ota_0/M13d VDD sky130_fd_pr__pfet_01v8_lvt ad=0p pd=0u as=0p ps=0u w=3e+06u l=4.8e+06u
X41 VDD se_fold_casc_wide_swing_ota_0/vmirror se_fold_casc_wide_swing_ota_0/vcascpm VDD sky130_fd_pr__pfet_01v8_lvt ad=0p pd=0u as=0p ps=0u w=3e+06u l=4.8e+06u
X42 se_fold_casc_wide_swing_ota_0/vcascnp se_fold_casc_wide_swing_ota_0/vbias4 VSS VSS sky130_fd_pr__nfet_01v8 ad=0p pd=0u as=0p ps=0u w=3e+06u l=4.8e+06u
X43 se_fold_casc_wide_swing_ota_0/vbias3 se_fold_casc_wide_swing_ota_0/M8d se_fold_casc_wide_swing_ota_0/M8d VSS sky130_fd_pr__nfet_01v8 ad=0p pd=0u as=0p ps=0u w=3e+06u l=4.8e+06u
X44 se_fold_casc_wide_swing_ota_0/M9d se_fold_casc_wide_swing_ota_0/vbias2 se_fold_casc_wide_swing_ota_0/M8d VDD sky130_fd_pr__pfet_01v8 ad=0p pd=0u as=0p ps=0u w=3e+06u l=4.8e+06u
X45 se_fold_casc_wide_swing_ota_0/vmirror se_fold_casc_wide_swing_ota_0/vmirror se_fold_casc_wide_swing_ota_0/vmirror VDD sky130_fd_pr__pfet_01v8 ad=0p pd=0u as=0p ps=0u w=3e+06u l=4.8e+06u
X46 VDD VDD se_fold_casc_wide_swing_ota_0/M16d VDD sky130_fd_pr__pfet_01v8 ad=0p pd=0u as=0p ps=0u w=3e+06u l=4.8e+06u
X47 se_fold_casc_wide_swing_ota_0/vcascnm se_fold_casc_wide_swing_ota_0/vbias3 se_fold_casc_wide_swing_ota_0/vmirror VSS sky130_fd_pr__nfet_01v8 ad=0p pd=0u as=0p ps=0u w=3e+06u l=4.8e+06u
X48 vhold VSS sky130_fd_pr__cap_mim_m3_1 l=1e+07u w=1e+07u
X49 se_fold_casc_wide_swing_ota_0/vbias3 se_fold_casc_wide_swing_ota_0/M8d se_fold_casc_wide_swing_ota_0/vbias4 VSS sky130_fd_pr__nfet_01v8 ad=0p pd=0u as=0p ps=0u w=3e+06u l=4.8e+06u
X50 se_fold_casc_wide_swing_ota_0/vbias1 se_fold_casc_wide_swing_ota_0/vbias2 se_fold_casc_wide_swing_ota_0/M7d VDD sky130_fd_pr__pfet_01v8 ad=0p pd=0u as=0p ps=0u w=3e+06u l=4.8e+06u
X51 VDD se_fold_casc_wide_swing_ota_0/vbias1 se_fold_casc_wide_swing_ota_0/vtail_cascp VDD sky130_fd_pr__pfet_01v8_lvt ad=0p pd=0u as=0p ps=0u w=3e+06u l=4.8e+06u
X52 se_fold_casc_wide_swing_ota_0/vmirror se_fold_casc_wide_swing_ota_0/vbias2 se_fold_casc_wide_swing_ota_0/vcascpm VDD sky130_fd_pr__pfet_01v8 ad=0p pd=0u as=0p ps=0u w=3e+06u l=4.8e+06u
X53 se_fold_casc_wide_swing_ota_0/vtail_cascn vholdm se_fold_casc_wide_swing_ota_0/vcascpp VSS sky130_fd_pr__nfet_01v8_lvt ad=0p pd=0u as=0p ps=0u w=3e+06u l=4.8e+06u
X54 vout se_fold_casc_wide_swing_ota_0/vbias3 se_fold_casc_wide_swing_ota_0/vcascnp VSS sky130_fd_pr__nfet_01v8 ad=0p pd=0u as=0p ps=0u w=3e+06u l=4.8e+06u
X55 se_fold_casc_wide_swing_ota_0/vcascnm se_fold_casc_wide_swing_ota_0/vbias4 VSS VSS sky130_fd_pr__nfet_01v8 ad=0p pd=0u as=0p ps=0u w=3e+06u l=4.8e+06u
X56 se_fold_casc_wide_swing_ota_0/vtail_cascn se_fold_casc_wide_swing_ota_0/vbias4 VSS VSS sky130_fd_pr__nfet_01v8 ad=0p pd=0u as=0p ps=0u w=3e+06u l=4.8e+06u
X57 se_fold_casc_wide_swing_ota_0/vtail_cascn vholdm se_fold_casc_wide_swing_ota_0/vcascpp VSS sky130_fd_pr__nfet_01v8_lvt ad=0p pd=0u as=0p ps=0u w=3e+06u l=4.8e+06u
X58 se_fold_casc_wide_swing_ota_0/vbias2 se_fold_casc_wide_swing_ota_0/vbias1 se_fold_casc_wide_swing_ota_0/vbias1 VSS sky130_fd_pr__nfet_01v8_lvt ad=0p pd=0u as=0p ps=0u w=3e+06u l=4.8e+06u
X59 VDD se_fold_casc_wide_swing_ota_0/vbias1 se_fold_casc_wide_swing_ota_0/M9d VDD sky130_fd_pr__pfet_01v8_lvt ad=0p pd=0u as=0p ps=0u w=3e+06u l=4.8e+06u
X60 se_fold_casc_wide_swing_ota_0/vcascpm se_fold_casc_wide_swing_ota_0/vmirror VDD VDD sky130_fd_pr__pfet_01v8_lvt ad=0p pd=0u as=0p ps=0u w=3e+06u l=4.8e+06u
X61 se_fold_casc_wide_swing_ota_0/vcascnm se_fold_casc_wide_swing_ota_0/vcascnm se_fold_casc_wide_swing_ota_0/vcascnm VSS sky130_fd_pr__nfet_01v8 ad=0p pd=0u as=0p ps=0u w=3e+06u l=4.8e+06u
X62 se_fold_casc_wide_swing_ota_0/vbias2 se_fold_casc_wide_swing_ota_0/vbias1 se_fold_casc_wide_swing_ota_0/vbias1 VSS sky130_fd_pr__nfet_01v8_lvt ad=0p pd=0u as=0p ps=0u w=3e+06u l=4.8e+06u
X63 se_fold_casc_wide_swing_ota_0/M13d se_fold_casc_wide_swing_ota_0/vbias1 VDD VDD sky130_fd_pr__pfet_01v8_lvt ad=0p pd=0u as=0p ps=0u w=3e+06u l=4.8e+06u
X64 se_fold_casc_wide_swing_ota_0/vbias3 se_fold_casc_wide_swing_ota_0/M8d se_fold_casc_wide_swing_ota_0/M8d VSS sky130_fd_pr__nfet_01v8 ad=0p pd=0u as=0p ps=0u w=3e+06u l=4.8e+06u
X65 VSS VSS sky130_fd_pr__cap_mim_m3_1 l=2.9e+07u w=4e+06u
X66 VSS se_fold_casc_wide_swing_ota_0/vbias4 se_fold_casc_wide_swing_ota_0/vtail_cascn VSS sky130_fd_pr__nfet_01v8 ad=0p pd=0u as=0p ps=0u w=3e+06u l=4.8e+06u
X67 vout VSS sky130_fd_pr__cap_mim_m3_1 l=2.4e+07u w=2.6e+07u
X68 a_21644_2848# se_fold_casc_wide_swing_ota_0/vbias4 VSS VSS sky130_fd_pr__nfet_01v8 ad=0p pd=0u as=0p ps=0u w=3e+06u l=4.8e+06u
X69 vout vout vout VDD sky130_fd_pr__pfet_01v8 ad=0p pd=0u as=0p ps=0u w=3e+06u l=4.8e+06u
X70 se_fold_casc_wide_swing_ota_0/vmirror se_fold_casc_wide_swing_ota_0/vbias3 se_fold_casc_wide_swing_ota_0/vcascnm VSS sky130_fd_pr__nfet_01v8 ad=0p pd=0u as=0p ps=0u w=3e+06u l=4.8e+06u
X71 se_fold_casc_wide_swing_ota_0/vbias2 se_fold_casc_wide_swing_ota_0/vbias1 se_fold_casc_wide_swing_ota_0/vbias1 VSS sky130_fd_pr__nfet_01v8_lvt ad=0p pd=0u as=0p ps=0u w=3e+06u l=4.8e+06u
X72 VSS se_fold_casc_wide_swing_ota_0/vbias4 se_fold_casc_wide_swing_ota_0/vcascnm VSS sky130_fd_pr__nfet_01v8 ad=0p pd=0u as=0p ps=0u w=3e+06u l=4.8e+06u
X73 VSS VSS sky130_fd_pr__cap_mim_m3_2 l=4e+06u w=2.9e+07u
X74 se_fold_casc_wide_swing_ota_0/M9d se_fold_casc_wide_swing_ota_0/M9d se_fold_casc_wide_swing_ota_0/M9d VDD sky130_fd_pr__pfet_01v8_lvt ad=0p pd=0u as=0p ps=0u w=3e+06u l=4.8e+06u
X75 VDD se_fold_casc_wide_swing_ota_0/vmirror se_fold_casc_wide_swing_ota_0/vcascpm VDD sky130_fd_pr__pfet_01v8_lvt ad=0p pd=0u as=0p ps=0u w=3e+06u l=4.8e+06u
X76 vholdm clk vout VSS sky130_fd_pr__nfet_01v8 ad=0p pd=0u as=0p ps=0u w=2e+06u l=1e+06u
X77 se_fold_casc_wide_swing_ota_0/vcascpp vholdm se_fold_casc_wide_swing_ota_0/vtail_cascn VSS sky130_fd_pr__nfet_01v8_lvt ad=0p pd=0u as=0p ps=0u w=3e+06u l=4.8e+06u
X78 se_fold_casc_wide_swing_ota_0/vbias3 se_fold_casc_wide_swing_ota_0/M8d se_fold_casc_wide_swing_ota_0/M8d VSS sky130_fd_pr__nfet_01v8 ad=0p pd=0u as=0p ps=0u w=3e+06u l=4.8e+06u
X79 se_fold_casc_wide_swing_ota_0/vcascpm VDD VDD VDD sky130_fd_pr__pfet_01v8 ad=0p pd=0u as=0p ps=0u w=3e+06u l=4.8e+06u
X80 vout se_fold_casc_wide_swing_ota_0/vbias2 se_fold_casc_wide_swing_ota_0/vcascpp VDD sky130_fd_pr__pfet_01v8 ad=0p pd=0u as=0p ps=0u w=3e+06u l=4.8e+06u
X81 se_fold_casc_wide_swing_ota_0/vbias1 se_fold_casc_wide_swing_ota_0/vbias1 se_fold_casc_wide_swing_ota_0/vbias2 VSS sky130_fd_pr__nfet_01v8_lvt ad=0p pd=0u as=0p ps=0u w=3e+06u l=4.8e+06u
X82 se_fold_casc_wide_swing_ota_0/vtail_cascp vhold se_fold_casc_wide_swing_ota_0/vcascnm VDD sky130_fd_pr__pfet_01v8_lvt ad=0p pd=0u as=0p ps=0u w=3e+06u l=4.8e+06u
X83 se_fold_casc_wide_swing_ota_0/vcascnp se_fold_casc_wide_swing_ota_0/vcascnp se_fold_casc_wide_swing_ota_0/vcascnp VDD sky130_fd_pr__pfet_01v8_lvt ad=0p pd=0u as=0p ps=0u w=3e+06u l=4.8e+06u
X84 se_fold_casc_wide_swing_ota_0/vtail_cascn vhold se_fold_casc_wide_swing_ota_0/vcascpm VSS sky130_fd_pr__nfet_01v8_lvt ad=0p pd=0u as=0p ps=0u w=3e+06u l=4.8e+06u
X85 VDD VDD se_fold_casc_wide_swing_ota_0/vmirror VDD sky130_fd_pr__pfet_01v8 ad=0p pd=0u as=0p ps=0u w=3e+06u l=4.8e+06u
X86 se_fold_casc_wide_swing_ota_0/vbias2 se_fold_casc_wide_swing_ota_0/vbias2 se_fold_casc_wide_swing_ota_0/vbias2 VSS sky130_fd_pr__nfet_01v8_lvt ad=0p pd=0u as=0p ps=0u w=3e+06u l=4.8e+06u
X87 VSS VSS sky130_fd_pr__cap_mim_m3_2 l=3.1e+07u w=2e+06u
X88 VSS VSS sky130_fd_pr__cap_mim_m3_1 l=2e+06u w=1.4e+07u
X89 VDD se_fold_casc_wide_swing_ota_0/vbias1 se_fold_casc_wide_swing_ota_0/M9d VDD sky130_fd_pr__pfet_01v8_lvt ad=0p pd=0u as=0p ps=0u w=3e+06u l=4.8e+06u
X90 VSS se_fold_casc_wide_swing_ota_0/vbias4 se_fold_casc_wide_swing_ota_0/vcascnp VSS sky130_fd_pr__nfet_01v8 ad=0p pd=0u as=0p ps=0u w=3e+06u l=4.8e+06u
X91 VSS se_fold_casc_wide_swing_ota_0/vbias4 se_fold_casc_wide_swing_ota_0/vcascnm VSS sky130_fd_pr__nfet_01v8 ad=0p pd=0u as=0p ps=0u w=3e+06u l=4.8e+06u
X92 se_fold_casc_wide_swing_ota_0/vcascnm se_fold_casc_wide_swing_ota_0/vbias4 VSS VSS sky130_fd_pr__nfet_01v8 ad=0p pd=0u as=0p ps=0u w=3e+06u l=4.8e+06u
X93 se_fold_casc_wide_swing_ota_0/M8d se_fold_casc_wide_swing_ota_0/vbias2 se_fold_casc_wide_swing_ota_0/M9d VDD sky130_fd_pr__pfet_01v8 ad=0p pd=0u as=0p ps=0u w=3e+06u l=4.8e+06u
X94 se_fold_casc_wide_swing_ota_0/vcascpm vhold se_fold_casc_wide_swing_ota_0/vtail_cascn VSS sky130_fd_pr__nfet_01v8_lvt ad=0p pd=0u as=0p ps=0u w=3e+06u l=4.8e+06u
X95 se_fold_casc_wide_swing_ota_0/M8d se_fold_casc_wide_swing_ota_0/M8d se_fold_casc_wide_swing_ota_0/vbias3 VSS sky130_fd_pr__nfet_01v8 ad=0p pd=0u as=0p ps=0u w=3e+06u l=4.8e+06u
X96 VSS se_fold_casc_wide_swing_ota_0/vbias4 se_fold_casc_wide_swing_ota_0/vcascnm VSS sky130_fd_pr__nfet_01v8 ad=0p pd=0u as=0p ps=0u w=3e+06u l=4.8e+06u
X97 se_fold_casc_wide_swing_ota_0/vbias2 se_fold_casc_wide_swing_ota_0/vbias1 se_fold_casc_wide_swing_ota_0/vbias1 VSS sky130_fd_pr__nfet_01v8_lvt ad=0p pd=0u as=0p ps=0u w=3e+06u l=4.8e+06u
X98 se_fold_casc_wide_swing_ota_0/vcascnp se_fold_casc_wide_swing_ota_0/vbias3 vout VSS sky130_fd_pr__nfet_01v8 ad=0p pd=0u as=0p ps=0u w=3e+06u l=4.8e+06u
X99 se_fold_casc_wide_swing_ota_0/vbias2 se_fold_casc_wide_swing_ota_0/vbias1 se_fold_casc_wide_swing_ota_0/vbias1 VSS sky130_fd_pr__nfet_01v8_lvt ad=0p pd=0u as=0p ps=0u w=3e+06u l=4.8e+06u
X100 se_fold_casc_wide_swing_ota_0/vtail_cascp se_fold_casc_wide_swing_ota_0/vbias1 VDD VDD sky130_fd_pr__pfet_01v8_lvt ad=0p pd=0u as=0p ps=0u w=3e+06u l=4.8e+06u
X101 VDD VDD VDD VDD sky130_fd_pr__pfet_01v8_lvt ad=0p pd=0u as=0p ps=0u w=3e+06u l=4.8e+06u
X102 VSS se_fold_casc_wide_swing_ota_0/vbias4 a_21644_2848# VSS sky130_fd_pr__nfet_01v8 ad=0p pd=0u as=0p ps=0u w=3e+06u l=4.8e+06u
X103 se_fold_casc_wide_swing_ota_0/M8d se_fold_casc_wide_swing_ota_0/M8d se_fold_casc_wide_swing_ota_0/vbias3 VSS sky130_fd_pr__nfet_01v8 ad=0p pd=0u as=0p ps=0u w=3e+06u l=4.8e+06u
X104 se_fold_casc_wide_swing_ota_0/M8d se_fold_casc_wide_swing_ota_0/vbias2 se_fold_casc_wide_swing_ota_0/M9d VDD sky130_fd_pr__pfet_01v8 ad=0p pd=0u as=0p ps=0u w=3e+06u l=4.8e+06u
X105 se_fold_casc_wide_swing_ota_0/vcascnm se_fold_casc_wide_swing_ota_0/vcascnm se_fold_casc_wide_swing_ota_0/vcascnm VDD sky130_fd_pr__pfet_01v8_lvt ad=0p pd=0u as=0p ps=0u w=3e+06u l=4.8e+06u
X106 se_fold_casc_wide_swing_ota_0/vcascpp VDD VDD VDD sky130_fd_pr__pfet_01v8 ad=0p pd=0u as=0p ps=0u w=3e+06u l=4.8e+06u
X107 se_fold_casc_wide_swing_ota_0/vcascpm vhold se_fold_casc_wide_swing_ota_0/vtail_cascn VSS sky130_fd_pr__nfet_01v8_lvt ad=0p pd=0u as=0p ps=0u w=3e+06u l=4.8e+06u
X108 VDD VDD VDD VDD sky130_fd_pr__pfet_01v8_lvt ad=0p pd=0u as=0p ps=0u w=3e+06u l=4.8e+06u
X109 VSS VSS VSS VSS sky130_fd_pr__nfet_01v8 ad=0p pd=0u as=0p ps=0u w=3e+06u l=4.8e+06u
X110 se_fold_casc_wide_swing_ota_0/vcascnm se_fold_casc_wide_swing_ota_0/vbias4 VSS VSS sky130_fd_pr__nfet_01v8 ad=0p pd=0u as=0p ps=0u w=3e+06u l=4.8e+06u
X111 VDD VDD se_fold_casc_wide_swing_ota_0/vbias1 VDD sky130_fd_pr__pfet_01v8 ad=0p pd=0u as=0p ps=0u w=3e+06u l=4.8e+06u
X112 VSS VSS sky130_fd_pr__cap_mim_m3_1 l=2e+06u w=1.4e+07u
X113 se_fold_casc_wide_swing_ota_0/M9d se_fold_casc_wide_swing_ota_0/vbias1 VDD VDD sky130_fd_pr__pfet_01v8_lvt ad=0p pd=0u as=0p ps=0u w=3e+06u l=4.8e+06u
X114 se_fold_casc_wide_swing_ota_0/vcascnp se_fold_casc_wide_swing_ota_0/vbias3 vout VSS sky130_fd_pr__nfet_01v8 ad=0p pd=0u as=0p ps=0u w=3e+06u l=4.8e+06u
X115 vout vout vout VSS sky130_fd_pr__nfet_01v8 ad=0p pd=0u as=0p ps=0u w=3e+06u l=4.8e+06u
X116 se_fold_casc_wide_swing_ota_0/vbias2 ibiasn VSS VSS sky130_fd_pr__nfet_01v8 ad=0p pd=0u as=0p ps=0u w=3e+06u l=4.8e+06u
X117 VSS VSS sky130_fd_pr__cap_mim_m3_1 l=2.9e+07u w=4e+06u
X118 VSS VSS sky130_fd_pr__cap_mim_m3_1 l=1e+07u w=2e+06u
X119 se_fold_casc_wide_swing_ota_0/vbias2 se_fold_casc_wide_swing_ota_0/vbias2 se_fold_casc_wide_swing_ota_0/vbias2 VSS sky130_fd_pr__nfet_01v8_lvt ad=0p pd=0u as=0p ps=0u w=3e+06u l=4.8e+06u
X120 VDD se_fold_casc_wide_swing_ota_0/vmirror se_fold_casc_wide_swing_ota_0/vcascpm VDD sky130_fd_pr__pfet_01v8_lvt ad=0p pd=0u as=0p ps=0u w=3e+06u l=4.8e+06u
X121 se_fold_casc_wide_swing_ota_0/vmirror se_fold_casc_wide_swing_ota_0/vbias3 se_fold_casc_wide_swing_ota_0/vcascnm VSS sky130_fd_pr__nfet_01v8 ad=0p pd=0u as=0p ps=0u w=3e+06u l=4.8e+06u
X122 se_fold_casc_wide_swing_ota_0/M13d se_fold_casc_wide_swing_ota_0/M13d se_fold_casc_wide_swing_ota_0/M13d VDD sky130_fd_pr__pfet_01v8_lvt ad=0p pd=0u as=0p ps=0u w=3e+06u l=4.8e+06u
X123 VSS se_fold_casc_wide_swing_ota_0/vbias4 se_fold_casc_wide_swing_ota_0/vcascnm VSS sky130_fd_pr__nfet_01v8 ad=0p pd=0u as=0p ps=0u w=3e+06u l=4.8e+06u
X124 se_fold_casc_wide_swing_ota_0/vcascpp vholdm se_fold_casc_wide_swing_ota_0/vtail_cascn VSS sky130_fd_pr__nfet_01v8_lvt ad=0p pd=0u as=0p ps=0u w=3e+06u l=4.8e+06u
X125 a_21644_2848# se_fold_casc_wide_swing_ota_0/vbias4 VSS VSS sky130_fd_pr__nfet_01v8 ad=0p pd=0u as=0p ps=0u w=3e+06u l=4.8e+06u
X126 se_fold_casc_wide_swing_ota_0/vcascnp se_fold_casc_wide_swing_ota_0/vbias4 VSS VSS sky130_fd_pr__nfet_01v8 ad=0p pd=0u as=0p ps=0u w=3e+06u l=4.8e+06u
X127 VDD se_fold_casc_wide_swing_ota_0/vbias1 se_fold_casc_wide_swing_ota_0/M9d VDD sky130_fd_pr__pfet_01v8_lvt ad=0p pd=0u as=0p ps=0u w=3e+06u l=4.8e+06u
X128 se_fold_casc_wide_swing_ota_0/vbias2 se_fold_casc_wide_swing_ota_0/vbias1 se_fold_casc_wide_swing_ota_0/vbias1 VSS sky130_fd_pr__nfet_01v8_lvt ad=0p pd=0u as=0p ps=0u w=3e+06u l=4.8e+06u
X129 se_fold_casc_wide_swing_ota_0/vcascnp vholdm se_fold_casc_wide_swing_ota_0/vtail_cascp VDD sky130_fd_pr__pfet_01v8_lvt ad=0p pd=0u as=0p ps=0u w=3e+06u l=4.8e+06u
X130 se_fold_casc_wide_swing_ota_0/vmirror se_fold_casc_wide_swing_ota_0/vbias3 se_fold_casc_wide_swing_ota_0/vcascnm VSS sky130_fd_pr__nfet_01v8 ad=0p pd=0u as=0p ps=0u w=3e+06u l=4.8e+06u
X131 VDD VDD VDD VDD sky130_fd_pr__pfet_01v8 ad=0p pd=0u as=0p ps=0u w=3e+06u l=4.8e+06u
X132 se_fold_casc_wide_swing_ota_0/M7d se_fold_casc_wide_swing_ota_0/M7d se_fold_casc_wide_swing_ota_0/M7d VDD sky130_fd_pr__pfet_01v8 ad=0p pd=0u as=0p ps=0u w=3e+06u l=4.8e+06u
X133 VSS vout sky130_fd_pr__cap_mim_m3_2 l=2.6e+07u w=2.4e+07u
X134 VDD VDD VDD VDD sky130_fd_pr__pfet_01v8_lvt ad=0p pd=0u as=0p ps=0u w=3e+06u l=4.8e+06u
X135 se_fold_casc_wide_swing_ota_0/vbias3 se_fold_casc_wide_swing_ota_0/M8d se_fold_casc_wide_swing_ota_0/M8d VSS sky130_fd_pr__nfet_01v8 ad=0p pd=0u as=0p ps=0u w=3e+06u l=4.8e+06u
X136 VSS ibiasn se_fold_casc_wide_swing_ota_0/vbias2 VSS sky130_fd_pr__nfet_01v8 ad=0p pd=0u as=0p ps=0u w=3e+06u l=4.8e+06u
X137 VSS se_fold_casc_wide_swing_ota_0/vbias4 se_fold_casc_wide_swing_ota_0/vtail_cascn VSS sky130_fd_pr__nfet_01v8 ad=0p pd=0u as=0p ps=0u w=3e+06u l=4.8e+06u
X138 se_fold_casc_wide_swing_ota_0/M9d se_fold_casc_wide_swing_ota_0/vbias2 se_fold_casc_wide_swing_ota_0/M8d VDD sky130_fd_pr__pfet_01v8 ad=0p pd=0u as=0p ps=0u w=3e+06u l=4.8e+06u
X139 se_fold_casc_wide_swing_ota_0/vtail_cascp se_fold_casc_wide_swing_ota_0/vbias1 VDD VDD sky130_fd_pr__pfet_01v8_lvt ad=0p pd=0u as=0p ps=0u w=3e+06u l=4.8e+06u
X140 se_fold_casc_wide_swing_ota_0/vbias3 se_fold_casc_wide_swing_ota_0/M8d se_fold_casc_wide_swing_ota_0/M8d VSS sky130_fd_pr__nfet_01v8 ad=0p pd=0u as=0p ps=0u w=3e+06u l=4.8e+06u
X141 vholdm VSS VSS VSS sky130_fd_pr__nfet_01v8 ad=0p pd=0u as=0p ps=0u w=2e+06u l=1e+06u
X142 VSS se_fold_casc_wide_swing_ota_0/vbias4 se_fold_casc_wide_swing_ota_0/vcascnm VSS sky130_fd_pr__nfet_01v8 ad=0p pd=0u as=0p ps=0u w=3e+06u l=4.8e+06u
X143 vhold VSS sky130_fd_pr__cap_mim_m3_1 l=1e+07u w=1e+07u
X144 VSS VSS sky130_fd_pr__cap_mim_m3_1 l=2e+06u w=1.4e+07u
X145 VSS se_fold_casc_wide_swing_ota_0/vbias4 a_21644_2848# VSS sky130_fd_pr__nfet_01v8 ad=0p pd=0u as=0p ps=0u w=3e+06u l=4.8e+06u
X146 VDD se_fold_casc_wide_swing_ota_0/vbias1 se_fold_casc_wide_swing_ota_0/vtail_cascp VDD sky130_fd_pr__pfet_01v8_lvt ad=0p pd=0u as=0p ps=0u w=3e+06u l=4.8e+06u
X147 se_fold_casc_wide_swing_ota_0/M9d se_fold_casc_wide_swing_ota_0/vbias1 VDD VDD sky130_fd_pr__pfet_01v8_lvt ad=0p pd=0u as=0p ps=0u w=3e+06u l=4.8e+06u
X148 VSS se_fold_casc_wide_swing_ota_0/vbias4 se_fold_casc_wide_swing_ota_0/vcascnm VSS sky130_fd_pr__nfet_01v8 ad=0p pd=0u as=0p ps=0u w=3e+06u l=4.8e+06u
X149 vout VSS sky130_fd_pr__cap_mim_m3_1 l=2.4e+07u w=2.6e+07u
X150 se_fold_casc_wide_swing_ota_0/M9d se_fold_casc_wide_swing_ota_0/vbias2 se_fold_casc_wide_swing_ota_0/M8d VDD sky130_fd_pr__pfet_01v8 ad=0p pd=0u as=0p ps=0u w=3e+06u l=4.8e+06u
X151 se_fold_casc_wide_swing_ota_0/vbias1 se_fold_casc_wide_swing_ota_0/vbias1 se_fold_casc_wide_swing_ota_0/vbias2 VSS sky130_fd_pr__nfet_01v8_lvt ad=0p pd=0u as=0p ps=0u w=3e+06u l=4.8e+06u
X152 se_fold_casc_wide_swing_ota_0/M8d se_fold_casc_wide_swing_ota_0/M8d se_fold_casc_wide_swing_ota_0/vbias3 VSS sky130_fd_pr__nfet_01v8 ad=0p pd=0u as=0p ps=0u w=3e+06u l=4.8e+06u
X153 se_fold_casc_wide_swing_ota_0/vbias4 se_fold_casc_wide_swing_ota_0/vbias3 a_21644_2848# VSS sky130_fd_pr__nfet_01v8 ad=0p pd=0u as=0p ps=0u w=3e+06u l=4.8e+06u
X154 se_fold_casc_wide_swing_ota_0/vcascpm se_fold_casc_wide_swing_ota_0/vmirror VDD VDD sky130_fd_pr__pfet_01v8_lvt ad=0p pd=0u as=0p ps=0u w=3e+06u l=4.8e+06u
X155 VSS VSS vin VSS sky130_fd_pr__nfet_01v8 ad=0p pd=0u as=0p ps=0u w=2e+06u l=1e+06u
X156 se_fold_casc_wide_swing_ota_0/vbias1 se_fold_casc_wide_swing_ota_0/vbias1 se_fold_casc_wide_swing_ota_0/vbias1 VSS sky130_fd_pr__nfet_01v8_lvt ad=0p pd=0u as=0p ps=0u w=3e+06u l=4.8e+06u
X157 se_fold_casc_wide_swing_ota_0/vtail_cascn vholdm se_fold_casc_wide_swing_ota_0/vcascpp VSS sky130_fd_pr__nfet_01v8_lvt ad=0p pd=0u as=0p ps=0u w=3e+06u l=4.8e+06u
X158 VDD VDD VDD VDD sky130_fd_pr__pfet_01v8 ad=0p pd=0u as=0p ps=0u w=3e+06u l=4.8e+06u
X159 se_fold_casc_wide_swing_ota_0/M7d se_fold_casc_wide_swing_ota_0/M7d se_fold_casc_wide_swing_ota_0/M7d VDD sky130_fd_pr__pfet_01v8 ad=0p pd=0u as=0p ps=0u w=3e+06u l=4.8e+06u
X160 se_fold_casc_wide_swing_ota_0/vbias2 se_fold_casc_wide_swing_ota_0/vbias1 se_fold_casc_wide_swing_ota_0/vbias1 VSS sky130_fd_pr__nfet_01v8_lvt ad=0p pd=0u as=0p ps=0u w=3e+06u l=4.8e+06u
X161 se_fold_casc_wide_swing_ota_0/M9d se_fold_casc_wide_swing_ota_0/M9d se_fold_casc_wide_swing_ota_0/M9d VDD sky130_fd_pr__pfet_01v8_lvt ad=0p pd=0u as=0p ps=0u w=3e+06u l=4.8e+06u
X162 se_fold_casc_wide_swing_ota_0/vcascpm se_fold_casc_wide_swing_ota_0/vmirror VDD VDD sky130_fd_pr__pfet_01v8_lvt ad=0p pd=0u as=0p ps=0u w=3e+06u l=4.8e+06u
X163 se_fold_casc_wide_swing_ota_0/vcascnp se_fold_casc_wide_swing_ota_0/vbias3 vout VSS sky130_fd_pr__nfet_01v8 ad=0p pd=0u as=0p ps=0u w=3e+06u l=4.8e+06u
X164 se_fold_casc_wide_swing_ota_0/vbias2 se_fold_casc_wide_swing_ota_0/vbias1 se_fold_casc_wide_swing_ota_0/vbias1 VSS sky130_fd_pr__nfet_01v8_lvt ad=0p pd=0u as=0p ps=0u w=3e+06u l=4.8e+06u
X165 vout vout vout VSS sky130_fd_pr__nfet_01v8 ad=0p pd=0u as=0p ps=0u w=3e+06u l=4.8e+06u
X166 VSS se_fold_casc_wide_swing_ota_0/vbias4 se_fold_casc_wide_swing_ota_0/vtail_cascn VSS sky130_fd_pr__nfet_01v8 ad=0p pd=0u as=0p ps=0u w=3e+06u l=4.8e+06u
X167 VSS vout sky130_fd_pr__cap_mim_m3_2 l=2.6e+07u w=2.4e+07u
X168 se_fold_casc_wide_swing_ota_0/vtail_cascn vholdm se_fold_casc_wide_swing_ota_0/vcascpp VSS sky130_fd_pr__nfet_01v8_lvt ad=0p pd=0u as=0p ps=0u w=3e+06u l=4.8e+06u
X169 se_fold_casc_wide_swing_ota_0/vtail_cascn se_fold_casc_wide_swing_ota_0/vbias4 VSS VSS sky130_fd_pr__nfet_01v8 ad=0p pd=0u as=0p ps=0u w=3e+06u l=4.8e+06u
X170 se_fold_casc_wide_swing_ota_0/vcascpp vholdm se_fold_casc_wide_swing_ota_0/vtail_cascn VSS sky130_fd_pr__nfet_01v8_lvt ad=0p pd=0u as=0p ps=0u w=3e+06u l=4.8e+06u
X171 vin clk vhold VSS sky130_fd_pr__nfet_01v8 ad=0p pd=0u as=0p ps=0u w=2e+06u l=1e+06u
X172 se_fold_casc_wide_swing_ota_0/vbias3 se_fold_casc_wide_swing_ota_0/M8d se_fold_casc_wide_swing_ota_0/M8d VSS sky130_fd_pr__nfet_01v8 ad=0p pd=0u as=0p ps=0u w=3e+06u l=4.8e+06u
X173 VSS se_fold_casc_wide_swing_ota_0/vbias4 se_fold_casc_wide_swing_ota_0/vcascnp VSS sky130_fd_pr__nfet_01v8 ad=0p pd=0u as=0p ps=0u w=3e+06u l=4.8e+06u
X174 se_fold_casc_wide_swing_ota_0/vcascpp vholdm se_fold_casc_wide_swing_ota_0/vtail_cascn VSS sky130_fd_pr__nfet_01v8_lvt ad=0p pd=0u as=0p ps=0u w=3e+06u l=4.8e+06u
X175 VSS VSS vout VSS sky130_fd_pr__nfet_01v8 ad=0p pd=0u as=0p ps=0u w=2e+06u l=1e+06u
X176 vholdm vout sky130_fd_pr__cap_mim_m3_1 l=1e+07u w=1e+07u
X177 se_fold_casc_wide_swing_ota_0/vtail_cascn se_fold_casc_wide_swing_ota_0/vbias4 VSS VSS sky130_fd_pr__nfet_01v8 ad=0p pd=0u as=0p ps=0u w=3e+06u l=4.8e+06u
X178 VSS se_fold_casc_wide_swing_ota_0/vbias4 se_fold_casc_wide_swing_ota_0/vcascnm VSS sky130_fd_pr__nfet_01v8 ad=0p pd=0u as=0p ps=0u w=3e+06u l=4.8e+06u
X179 vholdm vout sky130_fd_pr__cap_mim_m3_1 l=1e+07u w=1e+07u
X180 se_fold_casc_wide_swing_ota_0/vcascnm se_fold_casc_wide_swing_ota_0/vbias3 se_fold_casc_wide_swing_ota_0/vmirror VSS sky130_fd_pr__nfet_01v8 ad=0p pd=0u as=0p ps=0u w=3e+06u l=4.8e+06u
X181 se_fold_casc_wide_swing_ota_0/vbias1 se_fold_casc_wide_swing_ota_0/vbias1 se_fold_casc_wide_swing_ota_0/vbias2 VSS sky130_fd_pr__nfet_01v8_lvt ad=0p pd=0u as=0p ps=0u w=3e+06u l=4.8e+06u
X182 se_fold_casc_wide_swing_ota_0/vbias1 se_fold_casc_wide_swing_ota_0/vbias1 se_fold_casc_wide_swing_ota_0/vbias2 VSS sky130_fd_pr__nfet_01v8_lvt ad=0p pd=0u as=0p ps=0u w=3e+06u l=4.8e+06u
X183 se_fold_casc_wide_swing_ota_0/vtail_cascn vhold se_fold_casc_wide_swing_ota_0/vcascpm VSS sky130_fd_pr__nfet_01v8_lvt ad=0p pd=0u as=0p ps=0u w=3e+06u l=4.8e+06u
X184 a_21644_2848# se_fold_casc_wide_swing_ota_0/vbias4 VSS VSS sky130_fd_pr__nfet_01v8 ad=0p pd=0u as=0p ps=0u w=3e+06u l=4.8e+06u
X185 VSS se_fold_casc_wide_swing_ota_0/vbias4 se_fold_casc_wide_swing_ota_0/vcascnp VSS sky130_fd_pr__nfet_01v8 ad=0p pd=0u as=0p ps=0u w=3e+06u l=4.8e+06u
X186 se_fold_casc_wide_swing_ota_0/M8d se_fold_casc_wide_swing_ota_0/M8d se_fold_casc_wide_swing_ota_0/vbias3 VSS sky130_fd_pr__nfet_01v8 ad=0p pd=0u as=0p ps=0u w=3e+06u l=4.8e+06u
X187 se_fold_casc_wide_swing_ota_0/vcascpm vhold se_fold_casc_wide_swing_ota_0/vtail_cascn VSS sky130_fd_pr__nfet_01v8_lvt ad=0p pd=0u as=0p ps=0u w=3e+06u l=4.8e+06u
X188 se_fold_casc_wide_swing_ota_0/vcascpm se_fold_casc_wide_swing_ota_0/vmirror VDD VDD sky130_fd_pr__pfet_01v8_lvt ad=0p pd=0u as=0p ps=0u w=3e+06u l=4.8e+06u
X189 se_fold_casc_wide_swing_ota_0/vbias1 VDD VDD VDD sky130_fd_pr__pfet_01v8 ad=0p pd=0u as=0p ps=0u w=3e+06u l=4.8e+06u
X190 se_fold_casc_wide_swing_ota_0/vtail_cascn vhold se_fold_casc_wide_swing_ota_0/vcascpm VSS sky130_fd_pr__nfet_01v8_lvt ad=0p pd=0u as=0p ps=0u w=3e+06u l=4.8e+06u
X191 se_fold_casc_wide_swing_ota_0/vbias1 se_fold_casc_wide_swing_ota_0/vbias1 se_fold_casc_wide_swing_ota_0/vbias2 VSS sky130_fd_pr__nfet_01v8_lvt ad=0p pd=0u as=0p ps=0u w=3e+06u l=4.8e+06u
X192 VDD VDD VDD VDD sky130_fd_pr__pfet_01v8_lvt ad=0p pd=0u as=0p ps=0u w=3e+06u l=4.8e+06u
X193 se_fold_casc_wide_swing_ota_0/M8d se_fold_casc_wide_swing_ota_0/M8d se_fold_casc_wide_swing_ota_0/vbias3 VSS sky130_fd_pr__nfet_01v8 ad=0p pd=0u as=0p ps=0u w=3e+06u l=4.8e+06u
X194 se_fold_casc_wide_swing_ota_0/vcascnm se_fold_casc_wide_swing_ota_0/vbias4 VSS VSS sky130_fd_pr__nfet_01v8 ad=0p pd=0u as=0p ps=0u w=3e+06u l=4.8e+06u
X195 VSS VSS VSS VSS sky130_fd_pr__nfet_01v8 ad=0p pd=0u as=0p ps=0u w=3e+06u l=4.8e+06u
X196 VSS se_fold_casc_wide_swing_ota_0/vbias4 a_21644_2848# VSS sky130_fd_pr__nfet_01v8 ad=0p pd=0u as=0p ps=0u w=3e+06u l=4.8e+06u
X197 se_fold_casc_wide_swing_ota_0/vtail_cascn vholdm se_fold_casc_wide_swing_ota_0/vcascpp VSS sky130_fd_pr__nfet_01v8_lvt ad=0p pd=0u as=0p ps=0u w=3e+06u l=4.8e+06u
X198 se_fold_casc_wide_swing_ota_0/vbias4 se_fold_casc_wide_swing_ota_0/vbias3 a_21644_2848# VSS sky130_fd_pr__nfet_01v8 ad=0p pd=0u as=0p ps=0u w=3e+06u l=4.8e+06u