* NGSPICE file created from freq_div_flat.ext - technology: sky130A

.subckt freq_div_flat vin vout VDD VSS
X0 VSS a_1515_n911# a_1473_n1179# VSS sky130_fd_pr__nfet_01v8 ad=1.78827e+13p pd=1.9096e+08u as=1.32e+11p ps=1.49e+06u w=420000u l=150000u
X1 a_n1351_n813# a_n2049_n1179# a_n1608_n1067# VSS sky130_fd_pr__nfet_01v8 ad=1.368e+11p pd=1.48e+06u as=1.978e+11p ps=1.99e+06u w=360000u l=150000u
X2 a_n1776_n813# a_n2215_n1179# a_n1861_n1179# VSS sky130_fd_pr__nfet_01v8 ad=1.242e+11p pd=1.41e+06u as=1.626e+11p ps=1.66e+06u w=360000u l=150000u
X3 sky130_fd_sc_hd__dfxbp_1_7/Q a_1515_n911# VSS VSS sky130_fd_pr__nfet_01v8 ad=1.69e+11p pd=1.82e+06u as=0p ps=0u w=650000u l=150000u
X4 sky130_fd_sc_hd__inv_4_7/A sky130_fd_sc_hd__inv_1_7/A VDD VDD sky130_fd_pr__pfet_01v8_hvt ad=2.6e+11p pd=2.52e+06u as=2.61695e+13p ps=2.4618e+08u w=1e+06u l=150000u
X5 VSS a_n1183_n1999# a_n1225_n2267# VSS sky130_fd_pr__nfet_01v8 ad=0p pd=0u as=1.32e+11p ps=1.49e+06u w=420000u l=150000u
X6 a_n1776_n1723# a_n2049_n1717# a_n1861_n1723# VDD sky130_fd_pr__pfet_01v8_hvt ad=1.365e+11p pd=1.49e+06u as=1.155e+11p ps=1.39e+06u w=420000u l=150000u
X7 VDD sky130_fd_sc_hd__dfxbp_1_4/Q a_n2215_n2805# VDD sky130_fd_pr__pfet_01v8_hvt ad=0p pd=0u as=1.664e+11p ps=1.8e+06u w=640000u l=150000u
X8 VDD a_1090_n661# a_1017_n635# VDD sky130_fd_pr__pfet_01v8_hvt ad=0p pd=0u as=1.533e+11p ps=1.57e+06u w=420000u l=150000u
X9 a_n1650_n2433# a_n2049_n2805# a_n1776_n2811# VSS sky130_fd_pr__nfet_01v8 ad=1.392e+11p pd=1.53e+06u as=1.242e+11p ps=1.41e+06u w=360000u l=150000u
X10 a_n1351_n1723# a_n2215_n1717# a_n1608_n1749# VDD sky130_fd_pr__pfet_01v8_hvt ad=1.134e+11p pd=1.38e+06u as=2.19e+11p ps=2.15e+06u w=420000u l=150000u
X11 a_n1681_n813# a_n2215_n1179# a_n1776_n813# VDD sky130_fd_pr__pfet_01v8_hvt ad=1.533e+11p pd=1.57e+06u as=1.365e+11p ps=1.49e+06u w=420000u l=150000u
X12 a_922_n635# a_649_n629# a_837_n635# VDD sky130_fd_pr__pfet_01v8_hvt ad=1.365e+11p pd=1.49e+06u as=1.155e+11p ps=1.39e+06u w=420000u l=150000u
X13 sky130_fd_sc_hd__inv_1_2/A a_n752_n1723# VDD VDD sky130_fd_pr__pfet_01v8_hvt ad=2.6e+11p pd=2.52e+06u as=0p ps=0u w=1e+06u l=150000u
X14 VDD a_n1183_n2837# a_n752_n2811# VDD sky130_fd_pr__pfet_01v8_hvt ad=0p pd=0u as=1.664e+11p ps=1.8e+06u w=640000u l=150000u
X15 VSS sky130_fd_sc_hd__inv_4_7/A sky130_fd_sc_hd__inv_4_7/Y VSS sky130_fd_pr__nfet_01v8 ad=0p pd=0u as=3.51e+11p ps=3.68e+06u w=650000u l=150000u
X16 VSS a_1347_n635# a_1515_n661# VSS sky130_fd_pr__nfet_01v8 ad=0p pd=0u as=1.69e+11p ps=1.82e+06u w=650000u l=150000u
X17 sky130_fd_sc_hd__inv_4_7/Y sky130_fd_sc_hd__inv_4_7/A VDD VDD sky130_fd_pr__pfet_01v8_hvt ad=5.4e+11p pd=5.08e+06u as=0p ps=0u w=1e+06u l=150000u
X18 VSS a_n1183_n1749# a_n1225_n1345# VSS sky130_fd_pr__nfet_01v8 ad=0p pd=0u as=1.32e+11p ps=1.49e+06u w=420000u l=150000u
X19 sky130_fd_sc_hd__inv_1_8/A a_1946_n1723# VSS VSS sky130_fd_pr__nfet_01v8 ad=1.69e+11p pd=1.82e+06u as=0p ps=0u w=650000u l=150000u
X20 a_n1650_n91# a_n2049_n91# a_n1776_275# VSS sky130_fd_pr__nfet_01v8 ad=1.392e+11p pd=1.53e+06u as=1.242e+11p ps=1.41e+06u w=360000u l=150000u
X21 VSS a_1347_n813# a_1515_n911# VSS sky130_fd_pr__nfet_01v8 ad=0p pd=0u as=1.69e+11p ps=1.82e+06u w=650000u l=150000u
X22 VSS sky130_fd_sc_hd__inv_4_4/A sky130_fd_sc_hd__inv_4_4/Y VSS sky130_fd_pr__nfet_01v8 ad=0p pd=0u as=3.51e+11p ps=3.68e+06u w=650000u l=150000u
X23 VSS a_n1183_177# a_n1225_n91# VSS sky130_fd_pr__nfet_01v8 ad=0p pd=0u as=1.32e+11p ps=1.49e+06u w=420000u l=150000u
X24 a_n1861_n635# sky130_fd_sc_hd__inv_4_1/Y VDD VDD sky130_fd_pr__pfet_01v8_hvt ad=1.155e+11p pd=1.39e+06u as=0p ps=0u w=420000u l=150000u
X25 a_n2049_n2805# a_n2215_n2805# VDD VDD sky130_fd_pr__pfet_01v8_hvt ad=1.664e+11p pd=1.8e+06u as=0p ps=0u w=640000u l=150000u
X26 VDD sky130_fd_sc_hd__inv_4_4/A sky130_fd_sc_hd__inv_4_4/Y VDD sky130_fd_pr__pfet_01v8_hvt ad=0p pd=0u as=5.4e+11p ps=5.08e+06u w=1e+06u l=150000u
X27 VDD a_n1183_n911# a_n752_n857# VDD sky130_fd_pr__pfet_01v8_hvt ad=0p pd=0u as=1.664e+11p ps=1.8e+06u w=640000u l=150000u
X28 a_n1267_n1723# a_n2049_n1717# a_n1351_n1723# VDD sky130_fd_pr__pfet_01v8_hvt ad=1.764e+11p pd=1.68e+06u as=0p ps=0u w=420000u l=150000u
X29 a_n1608_21# a_n1776_275# VDD VDD sky130_fd_pr__pfet_01v8_hvt ad=2.19e+11p pd=2.15e+06u as=0p ps=0u w=750000u l=150000u
X30 sky130_fd_sc_hd__inv_4_4/A sky130_fd_sc_hd__inv_1_4/A VSS VSS sky130_fd_pr__nfet_01v8 ad=1.69e+11p pd=1.82e+06u as=0p ps=0u w=650000u l=150000u
X31 a_n1650_n2267# a_n2049_n2267# a_n1776_n1901# VSS sky130_fd_pr__nfet_01v8 ad=1.392e+11p pd=1.53e+06u as=1.242e+11p ps=1.41e+06u w=360000u l=150000u
X32 VSS sky130_fd_sc_hd__inv_4_8/A sky130_fd_sc_hd__inv_4_8/Y VSS sky130_fd_pr__nfet_01v8 ad=0p pd=0u as=3.51e+11p ps=3.68e+06u w=650000u l=150000u
X33 a_n1225_n1345# a_n2215_n1717# a_n1351_n1723# VSS sky130_fd_pr__nfet_01v8 ad=0p pd=0u as=1.368e+11p ps=1.48e+06u w=360000u l=150000u
X34 sky130_fd_sc_hd__inv_4_4/A sky130_fd_sc_hd__inv_1_4/A VDD VDD sky130_fd_pr__pfet_01v8_hvt ad=2.6e+11p pd=2.52e+06u as=0p ps=0u w=1e+06u l=150000u
X35 sky130_fd_sc_hd__inv_4_7/Y sky130_fd_sc_hd__inv_4_7/A VSS VSS sky130_fd_pr__nfet_01v8 ad=0p pd=0u as=0p ps=0u w=650000u l=150000u
X36 a_1090_n2837# a_922_n2811# VDD VDD sky130_fd_pr__pfet_01v8_hvt ad=2.19e+11p pd=2.15e+06u as=0p ps=0u w=750000u l=150000u
X37 a_n1861_n2267# sky130_fd_sc_hd__inv_4_4/Y VSS VSS sky130_fd_pr__nfet_01v8 ad=1.626e+11p pd=1.66e+06u as=0p ps=0u w=420000u l=150000u
X38 sky130_fd_sc_hd__inv_4_8/A sky130_fd_sc_hd__inv_1_8/A VDD VDD sky130_fd_pr__pfet_01v8_hvt ad=2.6e+11p pd=2.52e+06u as=0p ps=0u w=1e+06u l=150000u
X39 VDD a_n1183_177# a_n752_231# VDD sky130_fd_pr__pfet_01v8_hvt ad=0p pd=0u as=1.664e+11p ps=1.8e+06u w=640000u l=150000u
X40 sky130_fd_sc_hd__inv_1_1/A a_n752_n635# VDD VDD sky130_fd_pr__pfet_01v8_hvt ad=2.6e+11p pd=2.52e+06u as=0p ps=0u w=1e+06u l=150000u
X41 sky130_fd_sc_hd__dfxbp_1_8/Q a_1515_n1749# VDD VDD sky130_fd_pr__pfet_01v8_hvt ad=2.6e+11p pd=2.52e+06u as=0p ps=0u w=1e+06u l=150000u
X42 a_1017_n813# a_483_n1179# a_922_n813# VDD sky130_fd_pr__pfet_01v8_hvt ad=1.533e+11p pd=1.57e+06u as=1.365e+11p ps=1.49e+06u w=420000u l=150000u
X43 a_n1608_n1749# a_n1776_n1723# VSS VSS sky130_fd_pr__nfet_01v8 ad=1.978e+11p pd=1.99e+06u as=0p ps=0u w=640000u l=150000u
X44 a_1090_n661# a_922_n635# VDD VDD sky130_fd_pr__pfet_01v8_hvt ad=2.19e+11p pd=2.15e+06u as=0p ps=0u w=750000u l=150000u
X45 VDD a_n1608_21# a_n1681_275# VDD sky130_fd_pr__pfet_01v8_hvt ad=0p pd=0u as=1.533e+11p ps=1.57e+06u w=420000u l=150000u
X46 VSS a_n1183_n1999# a_n752_n1945# VSS sky130_fd_pr__nfet_01v8 ad=0p pd=0u as=1.092e+11p ps=1.36e+06u w=420000u l=150000u
X47 sky130_fd_sc_hd__inv_4_2/Y sky130_fd_sc_hd__inv_4_2/A VDD VDD sky130_fd_pr__pfet_01v8_hvt ad=5.4e+11p pd=5.08e+06u as=0p ps=0u w=1e+06u l=150000u
X48 VDD a_1515_n1999# a_1946_n1945# VDD sky130_fd_pr__pfet_01v8_hvt ad=0p pd=0u as=1.664e+11p ps=1.8e+06u w=640000u l=150000u
X49 sky130_fd_sc_hd__inv_4_8/Y sky130_fd_sc_hd__inv_4_8/A VSS VSS sky130_fd_pr__nfet_01v8 ad=0p pd=0u as=0p ps=0u w=650000u l=150000u
X50 a_837_n2267# sky130_fd_sc_hd__inv_4_9/Y VSS VSS sky130_fd_pr__nfet_01v8 ad=1.626e+11p pd=1.66e+06u as=0p ps=0u w=420000u l=150000u
X51 a_n1861_n1723# sky130_fd_sc_hd__inv_4_2/Y VSS VSS sky130_fd_pr__nfet_01v8 ad=1.626e+11p pd=1.66e+06u as=0p ps=0u w=420000u l=150000u
X52 sky130_fd_sc_hd__dfxbp_1_1/Q a_n1183_n661# VSS VSS sky130_fd_pr__nfet_01v8 ad=1.69e+11p pd=1.82e+06u as=0p ps=0u w=650000u l=150000u
X53 a_n2049_n629# a_n2215_n629# VDD VDD sky130_fd_pr__pfet_01v8_hvt ad=1.664e+11p pd=1.8e+06u as=0p ps=0u w=640000u l=150000u
X54 a_n1225_n257# a_n2215_n629# a_n1351_n635# VSS sky130_fd_pr__nfet_01v8 ad=1.32e+11p pd=1.49e+06u as=1.368e+11p ps=1.48e+06u w=360000u l=150000u
X55 a_n1225_n1179# a_n2215_n1179# a_n1351_n813# VSS sky130_fd_pr__nfet_01v8 ad=1.32e+11p pd=1.49e+06u as=0p ps=0u w=360000u l=150000u
X56 VDD a_n1351_n1901# a_n1183_n1999# VDD sky130_fd_pr__pfet_01v8_hvt ad=0p pd=0u as=2.7e+11p ps=2.54e+06u w=1e+06u l=150000u
X57 sky130_fd_sc_hd__inv_4_0/Y sky130_fd_sc_hd__inv_4_0/A VDD VDD sky130_fd_pr__pfet_01v8_hvt ad=5.4e+11p pd=5.08e+06u as=0p ps=0u w=1e+06u l=150000u
X58 a_922_n2811# a_483_n2805# a_837_n2811# VSS sky130_fd_pr__nfet_01v8 ad=1.242e+11p pd=1.41e+06u as=1.626e+11p ps=1.66e+06u w=360000u l=150000u
X59 VSS a_1090_n1067# a_1048_n1179# VSS sky130_fd_pr__nfet_01v8 ad=0p pd=0u as=1.392e+11p ps=1.53e+06u w=420000u l=150000u
X60 sky130_fd_sc_hd__inv_1_9/A a_1946_n1945# VSS VSS sky130_fd_pr__nfet_01v8 ad=1.69e+11p pd=1.82e+06u as=0p ps=0u w=650000u l=150000u
X61 VSS a_1515_n2837# a_1946_n2811# VSS sky130_fd_pr__nfet_01v8 ad=0p pd=0u as=1.092e+11p ps=1.36e+06u w=420000u l=150000u
X62 a_1090_n2155# a_922_n1901# VSS VSS sky130_fd_pr__nfet_01v8 ad=1.978e+11p pd=1.99e+06u as=0p ps=0u w=640000u l=150000u
X63 VSS a_n1183_n1749# a_n752_n1723# VSS sky130_fd_pr__nfet_01v8 ad=0p pd=0u as=1.092e+11p ps=1.36e+06u w=420000u l=150000u
X64 VSS sky130_fd_sc_hd__dfxbp_1_4/Q a_n2215_n2805# VSS sky130_fd_pr__nfet_01v8 ad=0p pd=0u as=1.092e+11p ps=1.36e+06u w=420000u l=150000u
X65 VDD a_1347_n1723# a_1515_n1749# VDD sky130_fd_pr__pfet_01v8_hvt ad=0p pd=0u as=2.7e+11p ps=2.54e+06u w=1e+06u l=150000u
X66 a_n1776_275# a_n2049_n91# a_n1861_n91# VDD sky130_fd_pr__pfet_01v8_hvt ad=1.365e+11p pd=1.49e+06u as=1.155e+11p ps=1.39e+06u w=420000u l=150000u
X67 sky130_fd_sc_hd__inv_1_9/A a_1946_n1945# VDD VDD sky130_fd_pr__pfet_01v8_hvt ad=2.6e+11p pd=2.52e+06u as=0p ps=0u w=1e+06u l=150000u
X68 VDD sky130_fd_sc_hd__dfxbp_1_9/Q a_483_n1717# VDD sky130_fd_pr__pfet_01v8_hvt ad=0p pd=0u as=1.664e+11p ps=1.8e+06u w=640000u l=150000u
X69 sky130_fd_sc_hd__inv_4_1/A sky130_fd_sc_hd__inv_1_1/A VSS VSS sky130_fd_pr__nfet_01v8 ad=1.69e+11p pd=1.82e+06u as=0p ps=0u w=650000u l=150000u
X70 a_1048_n2433# a_649_n2805# a_922_n2811# VSS sky130_fd_pr__nfet_01v8 ad=1.392e+11p pd=1.53e+06u as=0p ps=0u w=360000u l=150000u
X71 a_837_n1723# sky130_fd_sc_hd__inv_4_8/Y VSS VSS sky130_fd_pr__nfet_01v8 ad=1.626e+11p pd=1.66e+06u as=0p ps=0u w=420000u l=150000u
X72 VDD a_1515_n2837# a_1431_n2811# VDD sky130_fd_pr__pfet_01v8_hvt ad=0p pd=0u as=1.764e+11p ps=1.68e+06u w=420000u l=150000u
X73 VSS sky130_fd_sc_hd__inv_4_9/A sky130_fd_sc_hd__inv_4_9/Y VSS sky130_fd_pr__nfet_01v8 ad=0p pd=0u as=3.51e+11p ps=3.68e+06u w=650000u l=150000u
X74 VDD a_1090_n2837# a_1017_n2811# VDD sky130_fd_pr__pfet_01v8_hvt ad=0p pd=0u as=1.533e+11p ps=1.57e+06u w=420000u l=150000u
X75 sky130_fd_sc_hd__inv_4_1/Y sky130_fd_sc_hd__inv_4_1/A VDD VDD sky130_fd_pr__pfet_01v8_hvt ad=5.4e+11p pd=5.08e+06u as=0p ps=0u w=1e+06u l=150000u
X76 VDD sky130_fd_sc_hd__inv_4_9/A sky130_fd_sc_hd__inv_4_9/Y VDD sky130_fd_pr__pfet_01v8_hvt ad=0p pd=0u as=5.4e+11p ps=5.08e+06u w=1e+06u l=150000u
X77 sky130_fd_sc_hd__dfxbp_1_8/Q a_1515_n1749# VSS VSS sky130_fd_pr__nfet_01v8 ad=1.69e+11p pd=1.82e+06u as=0p ps=0u w=650000u l=150000u
X78 VSS a_1090_n661# a_1048_n257# VSS sky130_fd_pr__nfet_01v8 ad=0p pd=0u as=1.392e+11p ps=1.53e+06u w=420000u l=150000u
X79 a_n1608_n2155# a_n1776_n1901# VDD VDD sky130_fd_pr__pfet_01v8_hvt ad=2.19e+11p pd=2.15e+06u as=0p ps=0u w=750000u l=150000u
X80 a_649_n1179# a_483_n1179# VSS VSS sky130_fd_pr__nfet_01v8 ad=1.092e+11p pd=1.36e+06u as=0p ps=0u w=420000u l=150000u
X81 VDD a_n1183_n1999# a_n752_n1945# VDD sky130_fd_pr__pfet_01v8_hvt ad=0p pd=0u as=1.664e+11p ps=1.8e+06u w=640000u l=150000u
X82 sky130_fd_sc_hd__dfxbp_1_4/Q a_n1183_n1999# VDD VDD sky130_fd_pr__pfet_01v8_hvt ad=2.6e+11p pd=2.52e+06u as=0p ps=0u w=1e+06u l=150000u
X83 VSS sky130_fd_sc_hd__inv_4_3/A sky130_fd_sc_hd__inv_4_3/Y VSS sky130_fd_pr__nfet_01v8 ad=0p pd=0u as=3.51e+11p ps=3.68e+06u w=650000u l=150000u
X84 sky130_fd_sc_hd__inv_4_2/Y sky130_fd_sc_hd__inv_4_2/A VDD VDD sky130_fd_pr__pfet_01v8_hvt ad=0p pd=0u as=0p ps=0u w=1e+06u l=150000u
X85 a_922_n1901# a_483_n2267# a_837_n2267# VSS sky130_fd_pr__nfet_01v8 ad=1.242e+11p pd=1.41e+06u as=0p ps=0u w=360000u l=150000u
X86 sky130_fd_sc_hd__dfxbp_1_5/Q a_n1183_n2837# VSS VSS sky130_fd_pr__nfet_01v8 ad=1.69e+11p pd=1.82e+06u as=0p ps=0u w=650000u l=150000u
X87 VDD a_1515_n1999# a_1431_n1901# VDD sky130_fd_pr__pfet_01v8_hvt ad=0p pd=0u as=1.764e+11p ps=1.68e+06u w=420000u l=150000u
X88 sky130_fd_sc_hd__dfxbp_1_7/Q a_1515_n911# VDD VDD sky130_fd_pr__pfet_01v8_hvt ad=2.6e+11p pd=2.52e+06u as=0p ps=0u w=1e+06u l=150000u
X89 VDD a_1090_n2155# a_1017_n1901# VDD sky130_fd_pr__pfet_01v8_hvt ad=0p pd=0u as=1.533e+11p ps=1.57e+06u w=420000u l=150000u
X90 a_1347_n813# a_483_n1179# a_1090_n1067# VDD sky130_fd_pr__pfet_01v8_hvt ad=1.134e+11p pd=1.38e+06u as=2.19e+11p ps=2.15e+06u w=420000u l=150000u
X91 a_n2049_n2805# a_n2215_n2805# VSS VSS sky130_fd_pr__nfet_01v8 ad=1.092e+11p pd=1.36e+06u as=0p ps=0u w=420000u l=150000u
X92 a_1473_n257# a_483_n629# a_1347_n635# VSS sky130_fd_pr__nfet_01v8 ad=1.32e+11p pd=1.49e+06u as=1.368e+11p ps=1.48e+06u w=360000u l=150000u
X93 a_1048_n2267# a_649_n2267# a_922_n1901# VSS sky130_fd_pr__nfet_01v8 ad=1.392e+11p pd=1.53e+06u as=0p ps=0u w=360000u l=150000u
X94 VSS sky130_fd_sc_hd__inv_4_8/A sky130_fd_sc_hd__inv_4_8/Y VSS sky130_fd_pr__nfet_01v8 ad=0p pd=0u as=0p ps=0u w=650000u l=150000u
X95 sky130_fd_sc_hd__inv_4_3/A sky130_fd_sc_hd__inv_1_3/A VDD VDD sky130_fd_pr__pfet_01v8_hvt ad=2.6e+11p pd=2.52e+06u as=0p ps=0u w=1e+06u l=150000u
X96 a_n1776_n2811# a_n2215_n2805# a_n1861_n2811# VSS sky130_fd_pr__nfet_01v8 ad=0p pd=0u as=1.626e+11p ps=1.66e+06u w=360000u l=150000u
X97 sky130_fd_sc_hd__inv_1_5/A a_n752_n2811# VSS VSS sky130_fd_pr__nfet_01v8 ad=1.69e+11p pd=1.82e+06u as=0p ps=0u w=650000u l=150000u
X98 sky130_fd_sc_hd__inv_4_9/Y sky130_fd_sc_hd__inv_4_9/A VSS VSS sky130_fd_pr__nfet_01v8 ad=0p pd=0u as=0p ps=0u w=650000u l=150000u
X99 a_n1351_n2811# a_n2049_n2805# a_n1608_n2837# VSS sky130_fd_pr__nfet_01v8 ad=1.368e+11p pd=1.48e+06u as=1.978e+11p ps=1.99e+06u w=360000u l=150000u
X100 sky130_fd_sc_hd__inv_4_6/Y sky130_fd_sc_hd__inv_4_6/A VDD VDD sky130_fd_pr__pfet_01v8_hvt ad=5.4e+11p pd=5.08e+06u as=0p ps=0u w=1e+06u l=150000u
X101 VDD a_1515_n911# a_1946_n857# VDD sky130_fd_pr__pfet_01v8_hvt ad=0p pd=0u as=1.664e+11p ps=1.8e+06u w=640000u l=150000u
X102 VDD a_1515_n911# a_1431_n813# VDD sky130_fd_pr__pfet_01v8_hvt ad=0p pd=0u as=1.764e+11p ps=1.68e+06u w=420000u l=150000u
X103 sky130_fd_sc_hd__inv_4_0/Y sky130_fd_sc_hd__inv_4_0/A VSS VSS sky130_fd_pr__nfet_01v8 ad=3.51e+11p pd=3.68e+06u as=0p ps=0u w=650000u l=150000u
X104 VSS sky130_fd_sc_hd__inv_4_1/A sky130_fd_sc_hd__inv_4_1/Y VSS sky130_fd_pr__nfet_01v8 ad=0p pd=0u as=3.51e+11p ps=3.68e+06u w=650000u l=150000u
X105 sky130_fd_sc_hd__inv_4_9/Y sky130_fd_sc_hd__inv_4_9/A VDD VDD sky130_fd_pr__pfet_01v8_hvt ad=0p pd=0u as=0p ps=0u w=1e+06u l=150000u
X106 VSS a_1347_n1723# a_1515_n1749# VSS sky130_fd_pr__nfet_01v8 ad=0p pd=0u as=1.69e+11p ps=1.82e+06u w=650000u l=150000u
X107 a_837_n635# sky130_fd_sc_hd__inv_4_6/Y VSS VSS sky130_fd_pr__nfet_01v8 ad=1.626e+11p pd=1.66e+06u as=0p ps=0u w=420000u l=150000u
X108 VSS a_n1183_177# a_n752_231# VSS sky130_fd_pr__nfet_01v8 ad=0p pd=0u as=1.092e+11p ps=1.36e+06u w=420000u l=150000u
X109 a_n2049_n1179# a_n2215_n1179# VDD VDD sky130_fd_pr__pfet_01v8_hvt ad=1.664e+11p pd=1.8e+06u as=0p ps=0u w=640000u l=150000u
X110 sky130_fd_sc_hd__inv_4_6/A sky130_fd_sc_hd__inv_1_6/A VDD VDD sky130_fd_pr__pfet_01v8_hvt ad=2.6e+11p pd=2.52e+06u as=0p ps=0u w=1e+06u l=150000u
X111 VSS sky130_fd_sc_hd__dfxbp_1_10/Q a_483_n2267# VSS sky130_fd_pr__nfet_01v8 ad=0p pd=0u as=1.092e+11p ps=1.36e+06u w=420000u l=150000u
X112 sky130_fd_sc_hd__inv_4_8/Y sky130_fd_sc_hd__inv_4_8/A VSS VSS sky130_fd_pr__nfet_01v8 ad=0p pd=0u as=0p ps=0u w=650000u l=150000u
X113 VSS a_1515_n1999# a_1473_n2267# VSS sky130_fd_pr__nfet_01v8 ad=0p pd=0u as=1.32e+11p ps=1.49e+06u w=420000u l=150000u
X114 VDD a_n1351_n813# a_n1183_n911# VDD sky130_fd_pr__pfet_01v8_hvt ad=0p pd=0u as=2.7e+11p ps=2.54e+06u w=1e+06u l=150000u
X115 a_n2049_n629# a_n2215_n629# VSS VSS sky130_fd_pr__nfet_01v8 ad=1.092e+11p pd=1.36e+06u as=0p ps=0u w=420000u l=150000u
X116 VDD sky130_fd_sc_hd__dfxbp_1_10/Q a_483_n2267# VDD sky130_fd_pr__pfet_01v8_hvt ad=0p pd=0u as=1.664e+11p ps=1.8e+06u w=640000u l=150000u
X117 a_n1776_n1901# a_n2215_n2267# a_n1861_n2267# VSS sky130_fd_pr__nfet_01v8 ad=0p pd=0u as=0p ps=0u w=360000u l=150000u
X118 VDD sky130_fd_sc_hd__inv_4_2/A sky130_fd_sc_hd__inv_4_2/Y VDD sky130_fd_pr__pfet_01v8_hvt ad=0p pd=0u as=0p ps=0u w=1e+06u l=150000u
X119 a_n1351_n1901# a_n2049_n2267# a_n1608_n2155# VSS sky130_fd_pr__nfet_01v8 ad=1.368e+11p pd=1.48e+06u as=1.978e+11p ps=1.99e+06u w=360000u l=150000u
X120 a_1473_n1345# a_483_n1717# a_1347_n1723# VSS sky130_fd_pr__nfet_01v8 ad=1.32e+11p pd=1.49e+06u as=1.368e+11p ps=1.48e+06u w=360000u l=150000u
X121 a_n1650_n257# a_n2049_n629# a_n1776_n635# VSS sky130_fd_pr__nfet_01v8 ad=1.392e+11p pd=1.53e+06u as=1.242e+11p ps=1.41e+06u w=360000u l=150000u
X122 sky130_fd_sc_hd__dfxbp_1_9/Q a_1515_n1999# VSS VSS sky130_fd_pr__nfet_01v8 ad=1.69e+11p pd=1.82e+06u as=0p ps=0u w=650000u l=150000u
X123 a_n1776_n2811# a_n2049_n2805# a_n1861_n2811# VDD sky130_fd_pr__pfet_01v8_hvt ad=1.365e+11p pd=1.49e+06u as=1.155e+11p ps=1.39e+06u w=420000u l=150000u
X124 sky130_fd_sc_hd__inv_4_2/A sky130_fd_sc_hd__inv_1_2/A VDD VDD sky130_fd_pr__pfet_01v8_hvt ad=2.6e+11p pd=2.52e+06u as=0p ps=0u w=1e+06u l=150000u
X125 VDD sky130_fd_sc_hd__inv_4_3/A sky130_fd_sc_hd__inv_4_3/Y VDD sky130_fd_pr__pfet_01v8_hvt ad=0p pd=0u as=5.4e+11p ps=5.08e+06u w=1e+06u l=150000u
X126 a_n1776_n635# a_n2215_n629# a_n1861_n635# VSS sky130_fd_pr__nfet_01v8 ad=0p pd=0u as=1.626e+11p ps=1.66e+06u w=360000u l=150000u
X127 a_n1351_n2811# a_n2215_n2805# a_n1608_n2837# VDD sky130_fd_pr__pfet_01v8_hvt ad=1.134e+11p pd=1.38e+06u as=2.19e+11p ps=2.15e+06u w=420000u l=150000u
X128 sky130_fd_sc_hd__inv_4_10/A sky130_fd_sc_hd__inv_1_10/A VSS VSS sky130_fd_pr__nfet_01v8 ad=1.69e+11p pd=1.82e+06u as=0p ps=0u w=650000u l=150000u
X129 a_n1267_n813# a_n2049_n1179# a_n1351_n813# VDD sky130_fd_pr__pfet_01v8_hvt ad=1.764e+11p pd=1.68e+06u as=1.134e+11p ps=1.38e+06u w=420000u l=150000u
X130 sky130_fd_sc_hd__inv_4_6/Y sky130_fd_sc_hd__inv_4_6/A VDD VDD sky130_fd_pr__pfet_01v8_hvt ad=0p pd=0u as=0p ps=0u w=1e+06u l=150000u
X131 sky130_fd_sc_hd__inv_1_5/A a_n752_n2811# VDD VDD sky130_fd_pr__pfet_01v8_hvt ad=2.6e+11p pd=2.52e+06u as=0p ps=0u w=1e+06u l=150000u
X132 VSS sky130_fd_sc_hd__dfxbp_1_9/Q a_483_n1717# VSS sky130_fd_pr__nfet_01v8 ad=0p pd=0u as=1.092e+11p ps=1.36e+06u w=420000u l=150000u
X133 sky130_fd_sc_hd__inv_4_1/Y sky130_fd_sc_hd__inv_4_1/A VSS VSS sky130_fd_pr__nfet_01v8 ad=0p pd=0u as=0p ps=0u w=650000u l=150000u
X134 VSS vin a_n2215_n91# VSS sky130_fd_pr__nfet_01v8 ad=0p pd=0u as=1.092e+11p ps=1.36e+06u w=420000u l=150000u
X135 VSS a_1515_n1749# a_1473_n1345# VSS sky130_fd_pr__nfet_01v8 ad=0p pd=0u as=0p ps=0u w=420000u l=150000u
X136 a_n1681_275# a_n2215_n91# a_n1776_275# VDD sky130_fd_pr__pfet_01v8_hvt ad=0p pd=0u as=0p ps=0u w=420000u l=150000u
X137 VSS sky130_fd_sc_hd__inv_4_9/A sky130_fd_sc_hd__inv_4_9/Y VSS sky130_fd_pr__nfet_01v8 ad=0p pd=0u as=0p ps=0u w=650000u l=150000u
X138 a_1017_n1723# a_483_n1717# a_922_n1723# VDD sky130_fd_pr__pfet_01v8_hvt ad=1.533e+11p pd=1.57e+06u as=1.365e+11p ps=1.49e+06u w=420000u l=150000u
X139 a_n1861_n1723# sky130_fd_sc_hd__inv_4_2/Y VDD VDD sky130_fd_pr__pfet_01v8_hvt ad=0p pd=0u as=0p ps=0u w=420000u l=150000u
X140 sky130_fd_sc_hd__inv_4_5/Y sky130_fd_sc_hd__inv_4_5/A VSS VSS sky130_fd_pr__nfet_01v8 ad=3.51e+11p pd=3.68e+06u as=0p ps=0u w=650000u l=150000u
X141 a_1090_n2155# a_922_n1901# VDD VDD sky130_fd_pr__pfet_01v8_hvt ad=2.19e+11p pd=2.15e+06u as=0p ps=0u w=750000u l=150000u
X142 sky130_fd_sc_hd__inv_1_6/A a_1946_n635# VSS VSS sky130_fd_pr__nfet_01v8 ad=1.69e+11p pd=1.82e+06u as=0p ps=0u w=650000u l=150000u
X143 a_n1776_n1901# a_n2049_n2267# a_n1861_n2267# VDD sky130_fd_pr__pfet_01v8_hvt ad=1.365e+11p pd=1.49e+06u as=1.155e+11p ps=1.39e+06u w=420000u l=150000u
X144 VSS a_n1608_n1067# a_n1650_n1179# VSS sky130_fd_pr__nfet_01v8 ad=0p pd=0u as=1.392e+11p ps=1.53e+06u w=420000u l=150000u
X145 VSS a_n1183_n2837# a_n1225_n2433# VSS sky130_fd_pr__nfet_01v8 ad=0p pd=0u as=1.32e+11p ps=1.49e+06u w=420000u l=150000u
X146 VDD sky130_fd_sc_hd__inv_4_9/A sky130_fd_sc_hd__inv_4_9/Y VDD sky130_fd_pr__pfet_01v8_hvt ad=0p pd=0u as=0p ps=0u w=1e+06u l=150000u
X147 VDD a_1090_n1067# a_1017_n813# VDD sky130_fd_pr__pfet_01v8_hvt ad=0p pd=0u as=0p ps=0u w=420000u l=150000u
X148 a_922_n813# a_649_n1179# a_837_n1179# VDD sky130_fd_pr__pfet_01v8_hvt ad=0p pd=0u as=1.155e+11p ps=1.39e+06u w=420000u l=150000u
X149 a_n1861_n91# sky130_fd_sc_hd__inv_4_0/Y VSS VSS sky130_fd_pr__nfet_01v8 ad=1.626e+11p pd=1.66e+06u as=0p ps=0u w=420000u l=150000u
X150 a_n1351_n1901# a_n2215_n2267# a_n1608_n2155# VDD sky130_fd_pr__pfet_01v8_hvt ad=1.134e+11p pd=1.38e+06u as=0p ps=0u w=420000u l=150000u
X151 a_1473_n1179# a_483_n1179# a_1347_n813# VSS sky130_fd_pr__nfet_01v8 ad=0p pd=0u as=1.368e+11p ps=1.48e+06u w=360000u l=150000u
X152 VSS a_1347_n1901# a_1515_n1999# VSS sky130_fd_pr__nfet_01v8 ad=0p pd=0u as=1.69e+11p ps=1.82e+06u w=650000u l=150000u
X153 a_n1608_n2837# a_n1776_n2811# VSS VSS sky130_fd_pr__nfet_01v8 ad=0p pd=0u as=0p ps=0u w=640000u l=150000u
X154 VDD a_n1351_n1723# a_n1183_n1749# VDD sky130_fd_pr__pfet_01v8_hvt ad=0p pd=0u as=2.7e+11p ps=2.54e+06u w=1e+06u l=150000u
X155 a_n1267_n2811# a_n2049_n2805# a_n1351_n2811# VDD sky130_fd_pr__pfet_01v8_hvt ad=1.764e+11p pd=1.68e+06u as=0p ps=0u w=420000u l=150000u
X156 a_837_n1723# sky130_fd_sc_hd__inv_4_8/Y VDD VDD sky130_fd_pr__pfet_01v8_hvt ad=1.155e+11p pd=1.39e+06u as=0p ps=0u w=420000u l=150000u
X157 a_n1608_n661# a_n1776_n635# VDD VDD sky130_fd_pr__pfet_01v8_hvt ad=2.19e+11p pd=2.15e+06u as=0p ps=0u w=750000u l=150000u
X158 VSS sky130_fd_sc_hd__inv_4_1/A sky130_fd_sc_hd__inv_4_1/Y VSS sky130_fd_pr__nfet_01v8 ad=0p pd=0u as=0p ps=0u w=650000u l=150000u
X159 a_n1681_n1723# a_n2215_n1717# a_n1776_n1723# VDD sky130_fd_pr__pfet_01v8_hvt ad=1.533e+11p pd=1.57e+06u as=0p ps=0u w=420000u l=150000u
X160 a_649_n1717# a_483_n1717# VDD VDD sky130_fd_pr__pfet_01v8_hvt ad=1.664e+11p pd=1.8e+06u as=0p ps=0u w=640000u l=150000u
X161 VSS a_1515_n661# a_1473_n257# VSS sky130_fd_pr__nfet_01v8 ad=0p pd=0u as=0p ps=0u w=420000u l=150000u
X162 a_n1225_n2433# a_n2215_n2805# a_n1351_n2811# VSS sky130_fd_pr__nfet_01v8 ad=0p pd=0u as=0p ps=0u w=360000u l=150000u
X163 a_1090_n1749# a_922_n1723# VSS VSS sky130_fd_pr__nfet_01v8 ad=1.978e+11p pd=1.99e+06u as=0p ps=0u w=640000u l=150000u
X164 sky130_fd_sc_hd__inv_4_3/Y sky130_fd_sc_hd__inv_4_3/A VDD VDD sky130_fd_pr__pfet_01v8_hvt ad=0p pd=0u as=0p ps=0u w=1e+06u l=150000u
X165 sky130_fd_sc_hd__inv_4_9/Y sky130_fd_sc_hd__inv_4_9/A VSS VSS sky130_fd_pr__nfet_01v8 ad=0p pd=0u as=0p ps=0u w=650000u l=150000u
X166 sky130_fd_sc_hd__inv_1_8/A a_1946_n1723# VDD VDD sky130_fd_pr__pfet_01v8_hvt ad=2.6e+11p pd=2.52e+06u as=0p ps=0u w=1e+06u l=150000u
X167 VSS sky130_fd_sc_hd__inv_4_2/A sky130_fd_sc_hd__inv_4_2/Y VSS sky130_fd_pr__nfet_01v8 ad=0p pd=0u as=3.51e+11p ps=3.68e+06u w=650000u l=150000u
X168 a_n1861_n1179# sky130_fd_sc_hd__inv_4_3/Y VDD VDD sky130_fd_pr__pfet_01v8_hvt ad=1.155e+11p pd=1.39e+06u as=0p ps=0u w=420000u l=150000u
X169 sky130_fd_sc_hd__inv_4_10/A sky130_fd_sc_hd__inv_1_10/A VDD VDD sky130_fd_pr__pfet_01v8_hvt ad=2.6e+11p pd=2.52e+06u as=0p ps=0u w=1e+06u l=150000u
X170 sky130_fd_sc_hd__inv_4_9/Y sky130_fd_sc_hd__inv_4_9/A VDD VDD sky130_fd_pr__pfet_01v8_hvt ad=0p pd=0u as=0p ps=0u w=1e+06u l=150000u
X171 sky130_fd_sc_hd__inv_1_7/A a_1946_n857# VDD VDD sky130_fd_pr__pfet_01v8_hvt ad=2.6e+11p pd=2.52e+06u as=0p ps=0u w=1e+06u l=150000u
X172 a_n1267_n1901# a_n2049_n2267# a_n1351_n1901# VDD sky130_fd_pr__pfet_01v8_hvt ad=1.764e+11p pd=1.68e+06u as=0p ps=0u w=420000u l=150000u
X173 sky130_fd_sc_hd__dfxbp_1_10/Q a_1515_n2837# VDD VDD sky130_fd_pr__pfet_01v8_hvt ad=2.6e+11p pd=2.52e+06u as=0p ps=0u w=1e+06u l=150000u
X174 VDD sky130_fd_sc_hd__inv_4_8/A sky130_fd_sc_hd__inv_4_8/Y VDD sky130_fd_pr__pfet_01v8_hvt ad=0p pd=0u as=5.4e+11p ps=5.08e+06u w=1e+06u l=150000u
X175 VSS a_n1351_n2811# a_n1183_n2837# VSS sky130_fd_pr__nfet_01v8 ad=0p pd=0u as=1.69e+11p ps=1.82e+06u w=650000u l=150000u
X176 sky130_fd_sc_hd__inv_4_5/Y sky130_fd_sc_hd__inv_4_5/A VSS VSS sky130_fd_pr__nfet_01v8 ad=0p pd=0u as=0p ps=0u w=650000u l=150000u
X177 sky130_fd_sc_hd__dfxbp_1_2/Q a_n1183_n1749# VDD VDD sky130_fd_pr__pfet_01v8_hvt ad=2.6e+11p pd=2.52e+06u as=0p ps=0u w=1e+06u l=150000u
X178 sky130_fd_sc_hd__inv_4_5/Y sky130_fd_sc_hd__inv_4_5/A VDD VDD sky130_fd_pr__pfet_01v8_hvt ad=5.4e+11p pd=5.08e+06u as=0p ps=0u w=1e+06u l=150000u
X179 a_n1861_n2811# sky130_fd_sc_hd__inv_4_5/Y VSS VSS sky130_fd_pr__nfet_01v8 ad=0p pd=0u as=0p ps=0u w=420000u l=150000u
X180 a_1431_n1723# a_649_n1717# a_1347_n1723# VDD sky130_fd_pr__pfet_01v8_hvt ad=1.764e+11p pd=1.68e+06u as=1.134e+11p ps=1.38e+06u w=420000u l=150000u
X181 VDD sky130_fd_sc_hd__inv_4_3/A sky130_fd_sc_hd__inv_4_3/Y VDD sky130_fd_pr__pfet_01v8_hvt ad=0p pd=0u as=0p ps=0u w=1e+06u l=150000u
X182 a_n1225_n2267# a_n2215_n2267# a_n1351_n1901# VSS sky130_fd_pr__nfet_01v8 ad=0p pd=0u as=0p ps=0u w=360000u l=150000u
X183 a_1347_n1723# a_649_n1717# a_1090_n1749# VSS sky130_fd_pr__nfet_01v8 ad=0p pd=0u as=0p ps=0u w=360000u l=150000u
X184 a_n2049_n91# a_n2215_n91# VSS VSS sky130_fd_pr__nfet_01v8 ad=1.092e+11p pd=1.36e+06u as=0p ps=0u w=420000u l=150000u
X185 VSS a_1090_n2155# a_1048_n2267# VSS sky130_fd_pr__nfet_01v8 ad=0p pd=0u as=0p ps=0u w=420000u l=150000u
X186 VSS a_1515_n661# a_1946_n635# VSS sky130_fd_pr__nfet_01v8 ad=0p pd=0u as=1.092e+11p ps=1.36e+06u w=420000u l=150000u
X187 a_837_n635# sky130_fd_sc_hd__inv_4_6/Y VDD VDD sky130_fd_pr__pfet_01v8_hvt ad=0p pd=0u as=0p ps=0u w=420000u l=150000u
X188 VSS a_n1183_n2837# a_n752_n2811# VSS sky130_fd_pr__nfet_01v8 ad=0p pd=0u as=1.092e+11p ps=1.36e+06u w=420000u l=150000u
X189 VDD sky130_fd_sc_hd__dfxbp_1_7/Q a_483_n629# VDD sky130_fd_pr__pfet_01v8_hvt ad=0p pd=0u as=1.664e+11p ps=1.8e+06u w=640000u l=150000u
X190 VDD a_1347_n2811# a_1515_n2837# VDD sky130_fd_pr__pfet_01v8_hvt ad=0p pd=0u as=2.7e+11p ps=2.54e+06u w=1e+06u l=150000u
X191 VDD sky130_fd_sc_hd__dfxbp_1_5/Q a_483_n2805# VDD sky130_fd_pr__pfet_01v8_hvt ad=0p pd=0u as=1.664e+11p ps=1.8e+06u w=640000u l=150000u
X192 a_837_n2811# sky130_fd_sc_hd__inv_4_10/Y VSS VSS sky130_fd_pr__nfet_01v8 ad=0p pd=0u as=0p ps=0u w=420000u l=150000u
X193 sky130_fd_sc_hd__inv_4_8/Y sky130_fd_sc_hd__inv_4_8/A VDD VDD sky130_fd_pr__pfet_01v8_hvt ad=0p pd=0u as=0p ps=0u w=1e+06u l=150000u
X194 VDD a_n1608_n661# a_n1681_n635# VDD sky130_fd_pr__pfet_01v8_hvt ad=0p pd=0u as=1.533e+11p ps=1.57e+06u w=420000u l=150000u
X195 VSS a_1090_n1749# a_1048_n1345# VSS sky130_fd_pr__nfet_01v8 ad=0p pd=0u as=1.392e+11p ps=1.53e+06u w=420000u l=150000u
X196 vout a_1515_n661# VDD VDD sky130_fd_pr__pfet_01v8_hvt ad=2.6e+11p pd=2.52e+06u as=0p ps=0u w=1e+06u l=150000u
X197 VSS a_n1351_n635# a_n1183_n661# VSS sky130_fd_pr__nfet_01v8 ad=0p pd=0u as=1.69e+11p ps=1.82e+06u w=650000u l=150000u
X198 a_1347_n1723# a_483_n1717# a_1090_n1749# VDD sky130_fd_pr__pfet_01v8_hvt ad=0p pd=0u as=2.19e+11p ps=2.15e+06u w=420000u l=150000u
X199 VSS a_n1183_n661# a_n1225_n257# VSS sky130_fd_pr__nfet_01v8 ad=0p pd=0u as=0p ps=0u w=420000u l=150000u
X200 a_649_n2267# a_483_n2267# VSS VSS sky130_fd_pr__nfet_01v8 ad=1.092e+11p pd=1.36e+06u as=0p ps=0u w=420000u l=150000u
X201 VSS a_n1351_275# a_n1183_177# VSS sky130_fd_pr__nfet_01v8 ad=0p pd=0u as=1.69e+11p ps=1.82e+06u w=650000u l=150000u
X202 a_1347_n813# a_649_n1179# a_1090_n1067# VSS sky130_fd_pr__nfet_01v8 ad=0p pd=0u as=1.978e+11p ps=1.99e+06u w=360000u l=150000u
X203 VDD vin a_n2215_n91# VDD sky130_fd_pr__pfet_01v8_hvt ad=0p pd=0u as=1.664e+11p ps=1.8e+06u w=640000u l=150000u
X204 a_649_n2267# a_483_n2267# VDD VDD sky130_fd_pr__pfet_01v8_hvt ad=1.664e+11p pd=1.8e+06u as=0p ps=0u w=640000u l=150000u
X205 a_n1776_n635# a_n2049_n629# a_n1861_n635# VDD sky130_fd_pr__pfet_01v8_hvt ad=1.365e+11p pd=1.49e+06u as=0p ps=0u w=420000u l=150000u
X206 a_n1608_21# a_n1776_275# VSS VSS sky130_fd_pr__nfet_01v8 ad=1.978e+11p pd=1.99e+06u as=0p ps=0u w=640000u l=150000u
X207 VSS sky130_fd_sc_hd__inv_4_4/A sky130_fd_sc_hd__inv_4_4/Y VSS sky130_fd_pr__nfet_01v8 ad=0p pd=0u as=0p ps=0u w=650000u l=150000u
X208 sky130_fd_sc_hd__inv_4_5/Y sky130_fd_sc_hd__inv_4_5/A VDD VDD sky130_fd_pr__pfet_01v8_hvt ad=0p pd=0u as=0p ps=0u w=1e+06u l=150000u
X209 a_1431_n635# a_649_n629# a_1347_n635# VDD sky130_fd_pr__pfet_01v8_hvt ad=1.764e+11p pd=1.68e+06u as=1.134e+11p ps=1.38e+06u w=420000u l=150000u
X210 VSS sky130_fd_sc_hd__inv_4_5/A sky130_fd_sc_hd__inv_4_5/Y VSS sky130_fd_pr__nfet_01v8 ad=0p pd=0u as=0p ps=0u w=650000u l=150000u
X211 sky130_fd_sc_hd__inv_4_1/A sky130_fd_sc_hd__inv_1_1/A VDD VDD sky130_fd_pr__pfet_01v8_hvt ad=2.6e+11p pd=2.52e+06u as=0p ps=0u w=1e+06u l=150000u
X212 VSS a_n1608_21# a_n1650_n91# VSS sky130_fd_pr__nfet_01v8 ad=0p pd=0u as=0p ps=0u w=420000u l=150000u
X213 VDD sky130_fd_sc_hd__inv_4_4/A sky130_fd_sc_hd__inv_4_4/Y VDD sky130_fd_pr__pfet_01v8_hvt ad=0p pd=0u as=0p ps=0u w=1e+06u l=150000u
X214 sky130_fd_sc_hd__dfxbp_1_3/Q a_n1183_n911# VSS VSS sky130_fd_pr__nfet_01v8 ad=1.69e+11p pd=1.82e+06u as=0p ps=0u w=650000u l=150000u
X215 sky130_fd_sc_hd__inv_4_5/A sky130_fd_sc_hd__inv_1_5/A VSS VSS sky130_fd_pr__nfet_01v8 ad=1.69e+11p pd=1.82e+06u as=0p ps=0u w=650000u l=150000u
X216 VSS sky130_fd_sc_hd__inv_4_6/A sky130_fd_sc_hd__inv_4_6/Y VSS sky130_fd_pr__nfet_01v8 ad=0p pd=0u as=3.51e+11p ps=3.68e+06u w=650000u l=150000u
X217 a_649_n1717# a_483_n1717# VSS VSS sky130_fd_pr__nfet_01v8 ad=1.092e+11p pd=1.36e+06u as=0p ps=0u w=420000u l=150000u
X218 sky130_fd_sc_hd__inv_1_3/A a_n752_n857# VSS VSS sky130_fd_pr__nfet_01v8 ad=1.69e+11p pd=1.82e+06u as=0p ps=0u w=650000u l=150000u
X219 VDD sky130_fd_sc_hd__inv_4_0/A sky130_fd_sc_hd__inv_4_0/Y VDD sky130_fd_pr__pfet_01v8_hvt ad=0p pd=0u as=0p ps=0u w=1e+06u l=150000u
X220 VDD a_n1351_n635# a_n1183_n661# VDD sky130_fd_pr__pfet_01v8_hvt ad=0p pd=0u as=2.7e+11p ps=2.54e+06u w=1e+06u l=150000u