* NGSPICE file created from cs_ring_osc_flat.ext - technology: sky130A

.subckt cs_ring_osc_flat VDD VSS vctrl voscbuf vosc
X0 a_19604_n18124# vpbias a_19146_n18124# VDD sky130_fd_pr__pfet_01v8_hvt ad=4.64e+12p pd=3.316e+07u as=4.64e+12p ps=3.316e+07u w=8e+06u l=2e+06u
X1 a_19146_n18124# vpbias a_18688_n18124# VDD sky130_fd_pr__pfet_01v8_hvt ad=0p pd=0u as=4.64e+12p ps=3.316e+07u w=8e+06u l=2e+06u
X2 a_19454_n207# vpbias vpbias VDD sky130_fd_pr__pfet_01v8_hvt ad=4.64e+12p pd=3.316e+07u as=2.32e+12p ps=1.658e+07u w=8e+06u l=2e+06u
X3 VSS VSS sky130_fd_pr__cap_mim_m3_1 l=2e+06u w=2e+06u
X4 a_27607_n7345# cs_ring_osc_stage_5/vin a_27149_n7345# VDD sky130_fd_pr__pfet_01v8_hvt ad=1.74e+12p pd=1.258e+07u as=1.74e+12p ps=1.258e+07u w=6e+06u l=2e+06u
X5 VSS VSS cs_ring_osc_stage_1/csinvn VSS sky130_fd_pr__nfet_01v8 ad=1.63425e+13p pd=1.4662e+08u as=5.8e+11p ps=5.16e+06u w=1e+06u l=2e+06u
X6 a_32453_n15459# cs_ring_osc_stage_4/voutcs a_31995_n15459# VDD sky130_fd_pr__pfet_01v8_hvt ad=1.74e+12p pd=1.258e+07u as=1.74e+12p ps=1.258e+07u w=6e+06u l=2e+06u
X7 a_27149_n7345# cs_ring_osc_stage_5/vin cs_ring_osc_stage_5/csinvp VDD sky130_fd_pr__pfet_01v8_hvt ad=0p pd=0u as=4.06e+12p ps=2.916e+07u w=6e+06u l=2e+06u
X8 cs_ring_osc_stage_5/vin VSS sky130_fd_pr__cap_mim_m3_1 l=2e+06u w=2e+06u
X9 a_31995_n15459# cs_ring_osc_stage_4/voutcs a_31537_n15459# VDD sky130_fd_pr__pfet_01v8_hvt ad=0p pd=0u as=1.74e+12p ps=1.258e+07u w=6e+06u l=2e+06u
X10 VDD VDD VDD VDD sky130_fd_pr__pfet_01v8_hvt ad=1.2343e+14p pd=8.8948e+08u as=0p ps=0u w=6e+06u l=2e+06u
X11 a_22454_n12966# cs_ring_osc_stage_1/vin a_21996_n12966# VSS sky130_fd_pr__nfet_01v8 ad=2.9e+11p pd=2.58e+06u as=2.9e+11p ps=2.58e+06u w=1e+06u l=2e+06u
X12 VSS VSS sky130_fd_pr__cap_mim_m3_1 l=2e+06u w=2e+06u
X13 cs_ring_osc_stage_2/csinvn VSS VSS VSS sky130_fd_pr__nfet_01v8 ad=5.8e+11p pd=5.16e+06u as=0p ps=0u w=1e+06u l=2e+06u
X14 a_32607_n25345# cs_ring_osc_stage_3/voutcs a_32149_n25345# VDD sky130_fd_pr__pfet_01v8_hvt ad=1.74e+12p pd=1.258e+07u as=1.74e+12p ps=1.258e+07u w=6e+06u l=2e+06u
X15 a_32149_n25345# cs_ring_osc_stage_3/voutcs VDD VDD sky130_fd_pr__pfet_01v8_hvt ad=0p pd=0u as=0p ps=0u w=6e+06u l=2e+06u
X16 VDD VDD VDD VDD sky130_fd_pr__pfet_01v8_hvt ad=0p pd=0u as=0p ps=0u w=6e+06u l=2e+06u
X17 a_30456_n23080# vpbias a_29998_n23080# VDD sky130_fd_pr__pfet_01v8_hvt ad=4.64e+12p pd=3.316e+07u as=4.64e+12p ps=3.316e+07u w=8e+06u l=2e+06u
X18 VDD cs_ring_osc_stage_4/voutcs a_33827_n15459# VDD sky130_fd_pr__pfet_01v8_hvt ad=0p pd=0u as=1.74e+12p ps=1.258e+07u w=6e+06u l=2e+06u
X19 VSS VSS sky130_fd_pr__cap_mim_m3_1 l=2e+06u w=2e+06u
X20 a_33981_n25345# cs_ring_osc_stage_3/voutcs a_33523_n25345# VDD sky130_fd_pr__pfet_01v8_hvt ad=1.74e+12p pd=1.258e+07u as=1.74e+12p ps=1.258e+07u w=6e+06u l=2e+06u
X21 a_18538_n207# vpbias a_18996_n207# VDD sky130_fd_pr__pfet_01v8_hvt ad=4.64e+12p pd=3.316e+07u as=4.64e+12p ps=3.316e+07u w=8e+06u l=2e+06u
X22 a_12148_n9506# vctrl cs_ring_osc_stage_0/csinvn VSS sky130_fd_pr__nfet_01v8 ad=2.9e+11p pd=2.58e+06u as=5.8e+11p ps=5.16e+06u w=1e+06u l=2e+06u
X23 cs_ring_osc_stage_2/vin VSS sky130_fd_pr__cap_mim_m3_1 l=2e+06u w=2e+06u
X24 VSS VSS sky130_fd_pr__cap_mim_m3_1 l=2e+06u w=2e+06u
X25 a_12606_n27506# vctrl a_12148_n27506# VSS sky130_fd_pr__nfet_01v8 ad=2.9e+11p pd=2.58e+06u as=2.9e+11p ps=2.58e+06u w=1e+06u l=2e+06u
X26 a_19439_n25345# cs_ring_osc_stage_2/voutcs a_18981_n25345# VDD sky130_fd_pr__pfet_01v8_hvt ad=1.74e+12p pd=1.258e+07u as=1.74e+12p ps=1.258e+07u w=6e+06u l=2e+06u
X27 a_29082_n23080# vpbias a_29540_n23080# VDD sky130_fd_pr__pfet_01v8_hvt ad=4.64e+12p pd=3.316e+07u as=4.64e+12p ps=3.316e+07u w=8e+06u l=2e+06u
X28 a_29540_n23080# vpbias a_29998_n23080# VDD sky130_fd_pr__pfet_01v8_hvt ad=0p pd=0u as=0p ps=0u w=8e+06u l=2e+06u
X29 a_32912_n12966# cs_ring_osc_stage_4/voutcs a_32454_n12966# VSS sky130_fd_pr__nfet_01v8 ad=2.9e+11p pd=2.58e+06u as=2.9e+11p ps=2.58e+06u w=1e+06u l=2e+06u
X30 VDD VDD VDD VDD sky130_fd_pr__pfet_01v8_hvt ad=0p pd=0u as=0p ps=0u w=8e+06u l=2e+06u
X31 a_17454_n12966# cs_ring_osc_stage_1/voutcs a_16996_n12966# VSS sky130_fd_pr__nfet_01v8 ad=2.9e+11p pd=2.58e+06u as=2.9e+11p ps=2.58e+06u w=1e+06u l=2e+06u
X32 cs_ring_osc_stage_3/vin VSS sky130_fd_pr__cap_mim_m3_1 l=2e+06u w=2e+06u
X33 a_31538_n12966# cs_ring_osc_stage_4/voutcs a_31080_n12966# VSS sky130_fd_pr__nfet_01v8 ad=2.9e+11p pd=2.58e+06u as=2.9e+11p ps=2.58e+06u w=1e+06u l=2e+06u
X34 vosc cs_ring_osc_stage_5/vout a_30048_3044# VSS sky130_fd_pr__nfet_01v8 ad=2.9e+11p pd=2.58e+06u as=2.9e+11p ps=2.58e+06u w=1e+06u l=2e+06u
X35 a_17607_n7345# cs_ring_osc_stage_0/voutcs a_17149_n7345# VDD sky130_fd_pr__pfet_01v8_hvt ad=1.74e+12p pd=1.258e+07u as=1.74e+12p ps=1.258e+07u w=6e+06u l=2e+06u
X36 a_17149_n7345# cs_ring_osc_stage_0/voutcs VDD VDD sky130_fd_pr__pfet_01v8_hvt ad=0p pd=0u as=0p ps=0u w=6e+06u l=2e+06u
X37 a_21286_3044# vctrl a_20828_3044# VSS sky130_fd_pr__nfet_01v8 ad=2.9e+11p pd=2.58e+06u as=2.9e+11p ps=2.58e+06u w=1e+06u l=2e+06u
X38 cs_ring_osc_stage_0/csinvn VSS VSS VSS sky130_fd_pr__nfet_01v8 ad=0p pd=0u as=0p ps=0u w=1e+06u l=2e+06u
X39 VDD vpbias a_12708_n23080# VDD sky130_fd_pr__pfet_01v8_hvt ad=0p pd=0u as=4.64e+12p ps=3.316e+07u w=8e+06u l=2e+06u
X40 VSS VSS sky130_fd_pr__cap_mim_m3_1 l=2e+06u w=2e+06u
X41 a_14896_n26838# cs_ring_osc_stage_2/vin a_14438_n26838# VSS sky130_fd_pr__nfet_01v8 ad=2.9e+11p pd=2.58e+06u as=2.9e+11p ps=2.58e+06u w=1e+06u l=2e+06u
X42 VDD VDD VDD VDD sky130_fd_pr__pfet_01v8_hvt ad=0p pd=0u as=0p ps=0u w=8e+06u l=2e+06u
X43 a_18538_n207# vpbias a_18080_n207# VDD sky130_fd_pr__pfet_01v8_hvt ad=0p pd=0u as=4.64e+12p ps=3.316e+07u w=8e+06u l=2e+06u
X44 VSS VSS cs_ring_osc_stage_1/vin VSS sky130_fd_pr__nfet_01v8 ad=0p pd=0u as=2.9e+11p ps=2.58e+06u w=1e+06u l=2e+06u
X45 VSS VSS sky130_fd_pr__cap_mim_m3_1 l=2e+06u w=2e+06u
X46 VSS VSS sky130_fd_pr__cap_mim_m3_1 l=2e+06u w=2e+06u
X47 a_29438_n27506# vctrl a_28980_n27506# VSS sky130_fd_pr__nfet_01v8 ad=2.9e+11p pd=2.58e+06u as=2.9e+11p ps=2.58e+06u w=1e+06u l=2e+06u
X48 a_13166_n5080# vpbias a_13624_n5080# VDD sky130_fd_pr__pfet_01v8_hvt ad=4.64e+12p pd=3.316e+07u as=4.64e+12p ps=3.316e+07u w=8e+06u l=2e+06u
X49 VSS VSS sky130_fd_pr__cap_mim_m3_1 l=2e+06u w=2e+06u
X50 cs_ring_osc_stage_1/vin VSS sky130_fd_pr__cap_mim_m3_1 l=2e+06u w=2e+06u
X51 a_28624_n5080# vpbias a_28166_n5080# VDD sky130_fd_pr__pfet_01v8_hvt ad=4.64e+12p pd=3.316e+07u as=4.64e+12p ps=3.316e+07u w=8e+06u l=2e+06u
X52 cs_ring_osc_stage_0/voutcs vosc a_14896_n8838# VSS sky130_fd_pr__nfet_01v8 ad=2.9e+11p pd=2.58e+06u as=2.9e+11p ps=2.58e+06u w=1e+06u l=2e+06u
X53 VSS VSS sky130_fd_pr__cap_mim_m3_1 l=2e+06u w=2e+06u
X54 cs_ring_osc_stage_5/vout VSS sky130_fd_pr__cap_mim_m3_1 l=2e+06u w=2e+06u
X55 a_28166_n5080# vpbias a_27708_n5080# VDD sky130_fd_pr__pfet_01v8_hvt ad=0p pd=0u as=4.64e+12p ps=3.316e+07u w=8e+06u l=2e+06u
X56 a_29082_n5080# vpbias a_29540_n5080# VDD sky130_fd_pr__pfet_01v8_hvt ad=4.64e+12p pd=3.316e+07u as=4.64e+12p ps=3.316e+07u w=8e+06u l=2e+06u
X57 cs_ring_osc_stage_2/vin VSS sky130_fd_pr__cap_mim_m3_1 l=2e+06u w=2e+06u
X58 a_29540_n5080# vpbias a_29998_n5080# VDD sky130_fd_pr__pfet_01v8_hvt ad=0p pd=0u as=4.64e+12p ps=3.316e+07u w=8e+06u l=2e+06u
X59 VSS VSS sky130_fd_pr__cap_mim_m3_1 l=2e+06u w=2e+06u
X60 VSS VSS sky130_fd_pr__cap_mim_m3_1 l=2e+06u w=2e+06u
X61 VSS VSS sky130_fd_pr__cap_mim_m3_1 l=2e+06u w=2e+06u
X62 a_32148_n8838# cs_ring_osc_stage_5/voutcs VSS VSS sky130_fd_pr__nfet_01v8 ad=2.9e+11p pd=2.58e+06u as=0p ps=0u w=1e+06u l=2e+06u
X63 a_38370_n12298# vctrl a_37912_n12298# VSS sky130_fd_pr__nfet_01v8 ad=2.9e+11p pd=2.58e+06u as=2.9e+11p ps=2.58e+06u w=1e+06u l=2e+06u
X64 VDD VDD VDD VDD sky130_fd_pr__pfet_01v8_hvt ad=0p pd=0u as=0p ps=0u w=8e+06u l=2e+06u
X65 a_36996_n12298# vctrl a_36538_n12298# VSS sky130_fd_pr__nfet_01v8 ad=2.9e+11p pd=2.58e+06u as=2.9e+11p ps=2.58e+06u w=1e+06u l=2e+06u
X66 a_36080_n12966# cs_ring_osc_stage_4/vin cs_ring_osc_stage_4/voutcs VSS sky130_fd_pr__nfet_01v8 ad=2.9e+11p pd=2.58e+06u as=2.9e+11p ps=2.58e+06u w=1e+06u l=2e+06u
X67 VSS VSS sky130_fd_pr__cap_mim_m3_1 l=2e+06u w=2e+06u
X68 vosc2 vosc VDD VDD sky130_fd_pr__pfet_01v8_hvt ad=2.6e+11p pd=2.52e+06u as=0p ps=0u w=1e+06u l=150000u
X69 a_32772_n18124# vpbias a_32314_n18124# VDD sky130_fd_pr__pfet_01v8_hvt ad=4.64e+12p pd=3.316e+07u as=4.64e+12p ps=3.316e+07u w=8e+06u l=2e+06u
X70 VSS VSS sky130_fd_pr__cap_mim_m3_1 l=2e+06u w=2e+06u
X71 VSS VSS VSS VSS sky130_fd_pr__nfet_01v8 ad=0p pd=0u as=0p ps=0u w=1e+06u l=2e+06u
X72 a_13522_n27506# vctrl a_13064_n27506# VSS sky130_fd_pr__nfet_01v8 ad=2.9e+11p pd=2.58e+06u as=2.9e+11p ps=2.58e+06u w=1e+06u l=2e+06u
X73 VDD VDD cs_ring_osc_stage_5/voutcs VDD sky130_fd_pr__pfet_01v8_hvt ad=0p pd=0u as=1.74e+12p ps=1.258e+07u w=6e+06u l=2e+06u
X74 cs_ring_osc_stage_4/vin VSS sky130_fd_pr__cap_mim_m3_1 l=2e+06u w=2e+06u
X75 cs_ring_osc_stage_5/vout VSS sky130_fd_pr__cap_mim_m3_1 l=2e+06u w=2e+06u
X76 cs_ring_osc_stage_5/vout VSS sky130_fd_pr__cap_mim_m3_1 l=2e+06u w=2e+06u
X77 a_28523_n25345# cs_ring_osc_stage_3/vin a_28065_n25345# VDD sky130_fd_pr__pfet_01v8_hvt ad=1.74e+12p pd=1.258e+07u as=1.74e+12p ps=1.258e+07u w=6e+06u l=2e+06u
X78 a_28065_n25345# cs_ring_osc_stage_3/vin a_27607_n25345# VDD sky130_fd_pr__pfet_01v8_hvt ad=0p pd=0u as=1.74e+12p ps=1.258e+07u w=6e+06u l=2e+06u
X79 a_18064_n8838# cs_ring_osc_stage_0/voutcs a_17606_n8838# VSS sky130_fd_pr__nfet_01v8 ad=2.9e+11p pd=2.58e+06u as=2.9e+11p ps=2.58e+06u w=1e+06u l=2e+06u
X80 VSS VSS sky130_fd_pr__cap_mim_m3_1 l=2e+06u w=2e+06u
X81 a_17606_n8838# cs_ring_osc_stage_0/voutcs a_17148_n8838# VSS sky130_fd_pr__nfet_01v8 ad=0p pd=0u as=2.9e+11p ps=2.58e+06u w=1e+06u l=2e+06u
X82 a_34604_n18124# vpbias cs_ring_osc_stage_4/csinvp VDD sky130_fd_pr__pfet_01v8_hvt ad=4.64e+12p pd=3.316e+07u as=4.06e+12p ps=2.916e+07u w=8e+06u l=2e+06u
X83 cs_ring_osc_stage_4/csinvp vpbias a_34604_n18124# VDD sky130_fd_pr__pfet_01v8_hvt ad=0p pd=0u as=0p ps=0u w=8e+06u l=2e+06u
X84 cs_ring_osc_stage_3/vin cs_ring_osc_stage_2/voutcs a_19896_n26838# VSS sky130_fd_pr__nfet_01v8 ad=2.9e+11p pd=2.58e+06u as=2.9e+11p ps=2.58e+06u w=1e+06u l=2e+06u
X85 a_32454_n12966# cs_ring_osc_stage_4/voutcs a_31996_n12966# VSS sky130_fd_pr__nfet_01v8 ad=0p pd=0u as=2.9e+11p ps=2.58e+06u w=1e+06u l=2e+06u
X86 a_27148_n9506# vctrl cs_ring_osc_stage_5/csinvn VSS sky130_fd_pr__nfet_01v8 ad=2.9e+11p pd=2.58e+06u as=5.8e+11p ps=5.16e+06u w=1e+06u l=2e+06u
X87 cs_ring_osc_stage_3/voutcs cs_ring_osc_stage_3/vin a_29897_n25345# VDD sky130_fd_pr__pfet_01v8_hvt ad=1.74e+12p pd=1.258e+07u as=1.74e+12p ps=1.258e+07u w=6e+06u l=2e+06u
X88 a_21080_n12298# vctrl VSS VSS sky130_fd_pr__nfet_01v8 ad=2.9e+11p pd=2.58e+06u as=0p ps=0u w=1e+06u l=2e+06u
X89 a_17164_n207# vpbias a_17622_n207# VDD sky130_fd_pr__pfet_01v8_hvt ad=4.64e+12p pd=3.316e+07u as=4.64e+12p ps=3.316e+07u w=8e+06u l=2e+06u
X90 cs_ring_osc_stage_2/vin VSS sky130_fd_pr__cap_mim_m3_1 l=2e+06u w=2e+06u
X91 VSS VSS sky130_fd_pr__cap_mim_m3_1 l=2e+06u w=2e+06u
X92 a_18080_n207# vpbias a_17622_n207# VDD sky130_fd_pr__pfet_01v8_hvt ad=0p pd=0u as=0p ps=0u w=8e+06u l=2e+06u
X93 VSS VSS sky130_fd_pr__cap_mim_m3_1 l=2e+06u w=2e+06u
X94 a_32314_n18124# vpbias a_32772_n18124# VDD sky130_fd_pr__pfet_01v8_hvt ad=0p pd=0u as=0p ps=0u w=8e+06u l=2e+06u
X95 a_32772_n18124# vpbias a_33230_n18124# VDD sky130_fd_pr__pfet_01v8_hvt ad=0p pd=0u as=4.64e+12p ps=3.316e+07u w=8e+06u l=2e+06u
X96 a_14896_n9506# vctrl a_14438_n9506# VSS sky130_fd_pr__nfet_01v8 ad=2.9e+11p pd=2.58e+06u as=2.9e+11p ps=2.58e+06u w=1e+06u l=2e+06u
X97 a_13523_n25345# cs_ring_osc_stage_2/vin a_13065_n25345# VDD sky130_fd_pr__pfet_01v8_hvt ad=1.74e+12p pd=1.258e+07u as=1.74e+12p ps=1.258e+07u w=6e+06u l=2e+06u
X98 a_13065_n25345# cs_ring_osc_stage_2/vin a_12607_n25345# VDD sky130_fd_pr__pfet_01v8_hvt ad=0p pd=0u as=1.74e+12p ps=1.258e+07u w=6e+06u l=2e+06u
X99 a_14438_n9506# vctrl a_13980_n9506# VSS sky130_fd_pr__nfet_01v8 ad=0p pd=0u as=2.9e+11p ps=2.58e+06u w=1e+06u l=2e+06u
X100 cs_ring_osc_stage_5/csinvn VSS VSS VSS sky130_fd_pr__nfet_01v8 ad=0p pd=0u as=0p ps=0u w=1e+06u l=2e+06u
X101 cs_ring_osc_stage_3/vin VSS sky130_fd_pr__cap_mim_m3_1 l=2e+06u w=2e+06u
X102 VDD VDD vosc VDD sky130_fd_pr__pfet_01v8_hvt ad=0p pd=0u as=1.74e+12p ps=1.258e+07u w=6e+06u l=2e+06u
X103 a_19604_n18124# vpbias cs_ring_osc_stage_1/csinvp VDD sky130_fd_pr__pfet_01v8_hvt ad=0p pd=0u as=4.06e+12p ps=2.916e+07u w=8e+06u l=2e+06u
X104 VSS VSS cs_ring_osc_stage_5/vout VSS sky130_fd_pr__nfet_01v8 ad=0p pd=0u as=2.9e+11p ps=2.58e+06u w=1e+06u l=2e+06u
X105 cs_ring_osc_stage_4/voutcs VDD VDD VDD sky130_fd_pr__pfet_01v8_hvt ad=1.74e+12p pd=1.258e+07u as=0p ps=0u w=6e+06u l=2e+06u
X106 VDD VDD cs_ring_osc_stage_1/vin VDD sky130_fd_pr__pfet_01v8_hvt ad=0p pd=0u as=1.74e+12p ps=1.258e+07u w=6e+06u l=2e+06u
X107 cs_ring_osc_stage_5/voutcs cs_ring_osc_stage_5/vin a_29896_n8838# VSS sky130_fd_pr__nfet_01v8 ad=2.9e+11p pd=2.58e+06u as=2.9e+11p ps=2.58e+06u w=1e+06u l=2e+06u
X108 VDD VDD cs_ring_osc_stage_2/voutcs VDD sky130_fd_pr__pfet_01v8_hvt ad=0p pd=0u as=1.74e+12p ps=1.258e+07u w=6e+06u l=2e+06u
X109 cs_ring_osc_stage_2/voutcs cs_ring_osc_stage_2/vin a_14897_n25345# VDD sky130_fd_pr__pfet_01v8_hvt ad=0p pd=0u as=1.74e+12p ps=1.258e+07u w=6e+06u l=2e+06u
X110 a_34897_n25345# cs_ring_osc_stage_3/voutcs a_34439_n25345# VDD sky130_fd_pr__pfet_01v8_hvt ad=1.74e+12p pd=1.258e+07u as=1.74e+12p ps=1.258e+07u w=6e+06u l=2e+06u
X111 VDD vosc2 voscbuf VDD sky130_fd_pr__pfet_01v8_hvt ad=0p pd=0u as=5.4e+11p ps=5.08e+06u w=1e+06u l=150000u
X112 cs_ring_osc_stage_5/vin VSS sky130_fd_pr__cap_mim_m3_1 l=2e+06u w=2e+06u
X113 a_34897_n7345# cs_ring_osc_stage_5/voutcs a_34439_n7345# VDD sky130_fd_pr__pfet_01v8_hvt ad=1.74e+12p pd=1.258e+07u as=1.74e+12p ps=1.258e+07u w=6e+06u l=2e+06u
X114 a_17314_n18124# vpbias a_17772_n18124# VDD sky130_fd_pr__pfet_01v8_hvt ad=4.64e+12p pd=3.316e+07u as=4.64e+12p ps=3.316e+07u w=8e+06u l=2e+06u
X115 VSS VSS sky130_fd_pr__cap_mim_m3_1 l=2e+06u w=2e+06u
X116 VSS VSS sky130_fd_pr__cap_mim_m3_1 l=2e+06u w=2e+06u
X117 a_17772_n18124# vpbias a_18230_n18124# VDD sky130_fd_pr__pfet_01v8_hvt ad=0p pd=0u as=4.64e+12p ps=3.316e+07u w=8e+06u l=2e+06u
X118 VSS VSS sky130_fd_pr__cap_mim_m3_1 l=2e+06u w=2e+06u
X119 cs_ring_osc_stage_5/vout VSS sky130_fd_pr__cap_mim_m3_1 l=2e+06u w=2e+06u
X120 a_37911_n15459# cs_ring_osc_stage_4/vin a_37453_n15459# VDD sky130_fd_pr__pfet_01v8_hvt ad=1.74e+12p pd=1.258e+07u as=1.74e+12p ps=1.258e+07u w=6e+06u l=2e+06u
X121 VDD VDD VDD VDD sky130_fd_pr__pfet_01v8_hvt ad=0p pd=0u as=0p ps=0u w=8e+06u l=2e+06u
X122 a_29998_n5080# vpbias a_30456_n5080# VDD sky130_fd_pr__pfet_01v8_hvt ad=0p pd=0u as=4.64e+12p ps=3.316e+07u w=8e+06u l=2e+06u
X123 a_38828_n12298# vctrl a_38370_n12298# VSS sky130_fd_pr__nfet_01v8 ad=2.9e+11p pd=2.58e+06u as=0p ps=0u w=1e+06u l=2e+06u
X124 cs_ring_osc_stage_3/vin VSS sky130_fd_pr__cap_mim_m3_1 l=2e+06u w=2e+06u
X125 a_30456_n5080# vpbias cs_ring_osc_stage_5/csinvp VDD sky130_fd_pr__pfet_01v8_hvt ad=0p pd=0u as=0p ps=0u w=8e+06u l=2e+06u
X126 cs_ring_osc_stage_4/vin VSS sky130_fd_pr__cap_mim_m3_1 l=2e+06u w=2e+06u
X127 a_37912_n12966# cs_ring_osc_stage_4/vin a_37454_n12966# VSS sky130_fd_pr__nfet_01v8 ad=2.9e+11p pd=2.58e+06u as=2.9e+11p ps=2.58e+06u w=1e+06u l=2e+06u
X128 cs_ring_osc_stage_1/voutcs VDD VDD VDD sky130_fd_pr__pfet_01v8_hvt ad=1.74e+12p pd=1.258e+07u as=0p ps=0u w=6e+06u l=2e+06u
X129 a_36538_n12966# cs_ring_osc_stage_4/vin a_36080_n12966# VSS sky130_fd_pr__nfet_01v8 ad=2.9e+11p pd=2.58e+06u as=0p ps=0u w=1e+06u l=2e+06u
X130 a_34896_n8838# cs_ring_osc_stage_5/voutcs a_34438_n8838# VSS sky130_fd_pr__nfet_01v8 ad=2.9e+11p pd=2.58e+06u as=2.9e+11p ps=2.58e+06u w=1e+06u l=2e+06u
X131 a_12708_n5080# vpbias a_13166_n5080# VDD sky130_fd_pr__pfet_01v8_hvt ad=4.64e+12p pd=3.316e+07u as=0p ps=0u w=8e+06u l=2e+06u
X132 a_34438_n8838# cs_ring_osc_stage_5/voutcs a_33980_n8838# VSS sky130_fd_pr__nfet_01v8 ad=0p pd=0u as=2.9e+11p ps=2.58e+06u w=1e+06u l=2e+06u
X133 VSS VSS sky130_fd_pr__cap_mim_m3_1 l=2e+06u w=2e+06u
X134 a_28624_n5080# vpbias a_29082_n5080# VDD sky130_fd_pr__pfet_01v8_hvt ad=0p pd=0u as=0p ps=0u w=8e+06u l=2e+06u
X135 cs_ring_osc_stage_4/vin cs_ring_osc_stage_3/voutcs a_34896_n26838# VSS sky130_fd_pr__nfet_01v8 ad=2.9e+11p pd=2.58e+06u as=2.9e+11p ps=2.58e+06u w=1e+06u l=2e+06u
X136 VSS VSS sky130_fd_pr__cap_mim_m3_1 l=2e+06u w=2e+06u
X137 a_19896_n26838# cs_ring_osc_stage_2/voutcs a_19438_n26838# VSS sky130_fd_pr__nfet_01v8 ad=0p pd=0u as=2.9e+11p ps=2.58e+06u w=1e+06u l=2e+06u
X138 a_12148_n26838# cs_ring_osc_stage_2/vin cs_ring_osc_stage_2/csinvn VSS sky130_fd_pr__nfet_01v8 ad=2.9e+11p pd=2.58e+06u as=0p ps=0u w=1e+06u l=2e+06u
X139 cs_ring_osc_stage_5/vin VSS sky130_fd_pr__cap_mim_m3_1 l=2e+06u w=2e+06u
X140 a_22911_n15459# cs_ring_osc_stage_1/vin a_22453_n15459# VDD sky130_fd_pr__pfet_01v8_hvt ad=1.74e+12p pd=1.258e+07u as=1.74e+12p ps=1.258e+07u w=6e+06u l=2e+06u
X141 VSS VSS sky130_fd_pr__cap_mim_m3_1 l=2e+06u w=2e+06u
X142 VSS VSS sky130_fd_pr__cap_mim_m3_1 l=2e+06u w=2e+06u
X143 VSS VSS sky130_fd_pr__cap_mim_m3_1 l=2e+06u w=2e+06u
X144 a_12708_n5080# vpbias VDD VDD sky130_fd_pr__pfet_01v8_hvt ad=0p pd=0u as=0p ps=0u w=8e+06u l=2e+06u
X145 a_22912_n12298# vctrl a_22454_n12298# VSS sky130_fd_pr__nfet_01v8 ad=2.9e+11p pd=2.58e+06u as=2.9e+11p ps=2.58e+06u w=1e+06u l=2e+06u
X146 a_21538_n12298# vctrl a_21080_n12298# VSS sky130_fd_pr__nfet_01v8 ad=2.9e+11p pd=2.58e+06u as=0p ps=0u w=1e+06u l=2e+06u
X147 cs_ring_osc_stage_1/voutcs VSS VSS VSS sky130_fd_pr__nfet_01v8 ad=2.9e+11p pd=2.58e+06u as=0p ps=0u w=1e+06u l=2e+06u
X148 cs_ring_osc_stage_3/voutcs cs_ring_osc_stage_3/vin a_29896_n26838# VSS sky130_fd_pr__nfet_01v8 ad=2.9e+11p pd=2.58e+06u as=2.9e+11p ps=2.58e+06u w=1e+06u l=2e+06u
X149 a_29896_n9506# vctrl a_29438_n9506# VSS sky130_fd_pr__nfet_01v8 ad=2.9e+11p pd=2.58e+06u as=2.9e+11p ps=2.58e+06u w=1e+06u l=2e+06u
X150 VSS VSS sky130_fd_pr__cap_mim_m3_1 l=2e+06u w=2e+06u
X151 VSS VSS sky130_fd_pr__cap_mim_m3_1 l=2e+06u w=2e+06u
X152 a_29438_n9506# vctrl a_28980_n9506# VSS sky130_fd_pr__nfet_01v8 ad=0p pd=0u as=2.9e+11p ps=2.58e+06u w=1e+06u l=2e+06u
X153 a_33688_n18124# vpbias a_33230_n18124# VDD sky130_fd_pr__pfet_01v8_hvt ad=4.64e+12p pd=3.316e+07u as=0p ps=0u w=8e+06u l=2e+06u
X154 cs_ring_osc_stage_3/vin VSS sky130_fd_pr__cap_mim_m3_1 l=2e+06u w=2e+06u
X155 a_29439_n25345# cs_ring_osc_stage_3/vin a_28981_n25345# VDD sky130_fd_pr__pfet_01v8_hvt ad=1.74e+12p pd=1.258e+07u as=1.74e+12p ps=1.258e+07u w=6e+06u l=2e+06u
X156 VSS VSS sky130_fd_pr__cap_mim_m3_1 l=2e+06u w=2e+06u
X157 VSS VSS cs_ring_osc_stage_4/csinvn VSS sky130_fd_pr__nfet_01v8 ad=0p pd=0u as=5.8e+11p ps=5.16e+06u w=1e+06u l=2e+06u
X158 a_33688_n18124# vpbias a_34146_n18124# VDD sky130_fd_pr__pfet_01v8_hvt ad=0p pd=0u as=4.64e+12p ps=3.316e+07u w=8e+06u l=2e+06u
X159 a_34146_n18124# vpbias a_34604_n18124# VDD sky130_fd_pr__pfet_01v8_hvt ad=0p pd=0u as=0p ps=0u w=8e+06u l=2e+06u
X160 a_27708_n23080# vpbias VDD VDD sky130_fd_pr__pfet_01v8_hvt ad=4.64e+12p pd=3.316e+07u as=0p ps=0u w=8e+06u l=2e+06u
X161 a_16706_n207# vpbias VDD VDD sky130_fd_pr__pfet_01v8_hvt ad=4.64e+12p pd=3.316e+07u as=0p ps=0u w=8e+06u l=2e+06u
X162 a_13064_n8838# vosc a_12606_n8838# VSS sky130_fd_pr__nfet_01v8 ad=2.9e+11p pd=2.58e+06u as=2.9e+11p ps=2.58e+06u w=1e+06u l=2e+06u
X163 cs_ring_osc_stage_2/vin VSS VSS VSS sky130_fd_pr__nfet_01v8 ad=2.9e+11p pd=2.58e+06u as=0p ps=0u w=1e+06u l=2e+06u
X164 a_37454_n12966# cs_ring_osc_stage_4/vin a_36996_n12966# VSS sky130_fd_pr__nfet_01v8 ad=0p pd=0u as=2.9e+11p ps=2.58e+06u w=1e+06u l=2e+06u
X165 a_30048_3044# cs_ring_osc_stage_5/vout a_29590_3044# VSS sky130_fd_pr__nfet_01v8 ad=0p pd=0u as=2.9e+11p ps=2.58e+06u w=1e+06u l=2e+06u
X166 a_14897_n7345# vosc a_14439_n7345# VDD sky130_fd_pr__pfet_01v8_hvt ad=1.74e+12p pd=1.258e+07u as=1.74e+12p ps=1.258e+07u w=6e+06u l=2e+06u
X167 a_12606_n8838# vosc a_12148_n8838# VSS sky130_fd_pr__nfet_01v8 ad=0p pd=0u as=2.9e+11p ps=2.58e+06u w=1e+06u l=2e+06u
X168 cs_ring_osc_stage_3/csinvn VSS VSS VSS sky130_fd_pr__nfet_01v8 ad=5.8e+11p pd=5.16e+06u as=0p ps=0u w=1e+06u l=2e+06u
X169 a_29540_n23080# vpbias a_29082_n23080# VDD sky130_fd_pr__pfet_01v8_hvt ad=0p pd=0u as=0p ps=0u w=8e+06u l=2e+06u
X170 a_29082_n23080# vpbias a_28624_n23080# VDD sky130_fd_pr__pfet_01v8_hvt ad=0p pd=0u as=4.64e+12p ps=3.316e+07u w=8e+06u l=2e+06u
X171 cs_ring_osc_stage_5/vin VSS sky130_fd_pr__cap_mim_m3_1 l=2e+06u w=2e+06u
X172 VSS VSS sky130_fd_pr__cap_mim_m3_1 l=2e+06u w=2e+06u
X173 cs_ring_osc_stage_1/vin VSS sky130_fd_pr__cap_mim_m3_1 l=2e+06u w=2e+06u
X174 VDD vpbias a_31856_n18124# VDD sky130_fd_pr__pfet_01v8_hvt ad=0p pd=0u as=4.64e+12p ps=3.316e+07u w=8e+06u l=2e+06u
X175 a_31856_n18124# vpbias a_32314_n18124# VDD sky130_fd_pr__pfet_01v8_hvt ad=0p pd=0u as=0p ps=0u w=8e+06u l=2e+06u
X176 a_33981_n7345# cs_ring_osc_stage_5/voutcs a_33523_n7345# VDD sky130_fd_pr__pfet_01v8_hvt ad=1.74e+12p pd=1.258e+07u as=1.74e+12p ps=1.258e+07u w=6e+06u l=2e+06u
X177 a_34896_n26838# cs_ring_osc_stage_3/voutcs a_34438_n26838# VSS sky130_fd_pr__nfet_01v8 ad=0p pd=0u as=2.9e+11p ps=2.58e+06u w=1e+06u l=2e+06u
X178 a_14439_n25345# cs_ring_osc_stage_2/vin a_13981_n25345# VDD sky130_fd_pr__pfet_01v8_hvt ad=1.74e+12p pd=1.258e+07u as=1.74e+12p ps=1.258e+07u w=6e+06u l=2e+06u
X179 a_13064_n26838# cs_ring_osc_stage_2/vin a_12606_n26838# VSS sky130_fd_pr__nfet_01v8 ad=2.9e+11p pd=2.58e+06u as=2.9e+11p ps=2.58e+06u w=1e+06u l=2e+06u
X180 a_18996_3044# vctrl a_18538_3044# VSS sky130_fd_pr__nfet_01v8 ad=2.9e+11p pd=2.58e+06u as=2.9e+11p ps=2.58e+06u w=1e+06u l=2e+06u
X181 cs_ring_osc_stage_3/vin VSS sky130_fd_pr__cap_mim_m3_1 l=2e+06u w=2e+06u
X182 a_27606_n27506# vctrl a_27148_n27506# VSS sky130_fd_pr__nfet_01v8 ad=2.9e+11p pd=2.58e+06u as=2.9e+11p ps=2.58e+06u w=1e+06u l=2e+06u
X183 cs_ring_osc_stage_4/vin VSS sky130_fd_pr__cap_mim_m3_1 l=2e+06u w=2e+06u
X184 VSS VSS sky130_fd_pr__cap_mim_m3_1 l=2e+06u w=2e+06u
X185 a_18688_n18124# vpbias a_19146_n18124# VDD sky130_fd_pr__pfet_01v8_hvt ad=0p pd=0u as=0p ps=0u w=8e+06u l=2e+06u
X186 a_19146_n18124# vpbias a_19604_n18124# VDD sky130_fd_pr__pfet_01v8_hvt ad=0p pd=0u as=0p ps=0u w=8e+06u l=2e+06u
X187 a_12708_n23080# vpbias VDD VDD sky130_fd_pr__pfet_01v8_hvt ad=0p pd=0u as=0p ps=0u w=8e+06u l=2e+06u
X188 a_36537_n15459# cs_ring_osc_stage_4/vin a_36079_n15459# VDD sky130_fd_pr__pfet_01v8_hvt ad=1.74e+12p pd=1.258e+07u as=1.74e+12p ps=1.258e+07u w=6e+06u l=2e+06u
X189 a_36079_n15459# cs_ring_osc_stage_4/vin cs_ring_osc_stage_4/voutcs VDD sky130_fd_pr__pfet_01v8_hvt ad=0p pd=0u as=0p ps=0u w=6e+06u l=2e+06u
X190 VDD VDD cs_ring_osc_stage_5/vout VDD sky130_fd_pr__pfet_01v8_hvt ad=0p pd=0u as=1.74e+12p ps=1.258e+07u w=6e+06u l=2e+06u
X191 cs_ring_osc_stage_5/vout cs_ring_osc_stage_5/voutcs a_34897_n7345# VDD sky130_fd_pr__pfet_01v8_hvt ad=0p pd=0u as=0p ps=0u w=6e+06u l=2e+06u
X192 a_13980_n9506# vctrl a_13522_n9506# VSS sky130_fd_pr__nfet_01v8 ad=0p pd=0u as=2.9e+11p ps=2.58e+06u w=1e+06u l=2e+06u
X193 VDD vpbias a_16706_n207# VDD sky130_fd_pr__pfet_01v8_hvt ad=0p pd=0u as=0p ps=0u w=8e+06u l=2e+06u
X194 a_18996_n207# vpbias a_18538_n207# VDD sky130_fd_pr__pfet_01v8_hvt ad=0p pd=0u as=0p ps=0u w=8e+06u l=2e+06u
X195 a_13522_n9506# vctrl a_13064_n9506# VSS sky130_fd_pr__nfet_01v8 ad=0p pd=0u as=2.9e+11p ps=2.58e+06u w=1e+06u l=2e+06u
X196 a_22454_n12298# vctrl a_21996_n12298# VSS sky130_fd_pr__nfet_01v8 ad=0p pd=0u as=2.9e+11p ps=2.58e+06u w=1e+06u l=2e+06u
X197 a_14540_n23080# vpbias a_14082_n23080# VDD sky130_fd_pr__pfet_01v8_hvt ad=4.64e+12p pd=3.316e+07u as=4.64e+12p ps=3.316e+07u w=8e+06u l=2e+06u
X198 VSS vosc2 voscbuf VSS sky130_fd_pr__nfet_01v8 ad=0p pd=0u as=3.51e+11p ps=3.68e+06u w=650000u l=150000u
X199 a_14082_n23080# vpbias a_13624_n23080# VDD sky130_fd_pr__pfet_01v8_hvt ad=0p pd=0u as=4.64e+12p ps=3.316e+07u w=8e+06u l=2e+06u
X200 VSS VSS cs_ring_osc_stage_5/voutcs VSS sky130_fd_pr__nfet_01v8 ad=0p pd=0u as=0p ps=0u w=1e+06u l=2e+06u
X201 VDD vpbias a_16856_n18124# VDD sky130_fd_pr__pfet_01v8_hvt ad=0p pd=0u as=4.64e+12p ps=3.316e+07u w=8e+06u l=2e+06u
X202 a_16856_n18124# vpbias a_17314_n18124# VDD sky130_fd_pr__pfet_01v8_hvt ad=0p pd=0u as=0p ps=0u w=8e+06u l=2e+06u
X203 a_38827_n15459# cs_ring_osc_stage_4/vin a_38369_n15459# VDD sky130_fd_pr__pfet_01v8_hvt ad=1.74e+12p pd=1.258e+07u as=1.74e+12p ps=1.258e+07u w=6e+06u l=2e+06u
X204 a_29896_n26838# cs_ring_osc_stage_3/vin a_29438_n26838# VSS sky130_fd_pr__nfet_01v8 ad=0p pd=0u as=2.9e+11p ps=2.58e+06u w=1e+06u l=2e+06u
X205 a_38369_n15459# cs_ring_osc_stage_4/vin a_37911_n15459# VDD sky130_fd_pr__pfet_01v8_hvt ad=0p pd=0u as=0p ps=0u w=6e+06u l=2e+06u
X206 cs_ring_osc_stage_1/vin VSS sky130_fd_pr__cap_mim_m3_1 l=2e+06u w=2e+06u
X207 cs_ring_osc_stage_1/vin VSS sky130_fd_pr__cap_mim_m3_1 l=2e+06u w=2e+06u
X208 cs_ring_osc_stage_4/vin VSS sky130_fd_pr__cap_mim_m3_1 l=2e+06u w=2e+06u
X209 cs_ring_osc_stage_5/vout VSS sky130_fd_pr__cap_mim_m3_1 l=2e+06u w=2e+06u
X210 cs_ring_osc_stage_5/vout VSS sky130_fd_pr__cap_mim_m3_1 l=2e+06u w=2e+06u
X211 a_14998_n23080# vpbias a_15456_n23080# VDD sky130_fd_pr__pfet_01v8_hvt ad=4.64e+12p pd=3.316e+07u as=4.64e+12p ps=3.316e+07u w=8e+06u l=2e+06u
X212 cs_ring_osc_stage_1/csinvn cs_ring_osc_stage_1/vin a_23828_n12966# VSS sky130_fd_pr__nfet_01v8 ad=0p pd=0u as=2.9e+11p ps=2.58e+06u w=1e+06u l=2e+06u
X213 a_15456_n23080# vpbias cs_ring_osc_stage_2/csinvp VDD sky130_fd_pr__pfet_01v8_hvt ad=0p pd=0u as=4.06e+12p ps=2.916e+07u w=8e+06u l=2e+06u
X214 a_21537_n15459# cs_ring_osc_stage_1/vin a_21079_n15459# VDD sky130_fd_pr__pfet_01v8_hvt ad=1.74e+12p pd=1.258e+07u as=1.74e+12p ps=1.258e+07u w=6e+06u l=2e+06u
X215 a_21079_n15459# cs_ring_osc_stage_1/vin cs_ring_osc_stage_1/voutcs VDD sky130_fd_pr__pfet_01v8_hvt ad=0p pd=0u as=0p ps=0u w=6e+06u l=2e+06u
X216 VDD vosc2 voscbuf VDD sky130_fd_pr__pfet_01v8_hvt ad=0p pd=0u as=0p ps=0u w=1e+06u l=150000u
X217 VSS VSS sky130_fd_pr__cap_mim_m3_1 l=2e+06u w=2e+06u
X218 a_30456_n5080# vpbias a_29998_n5080# VDD sky130_fd_pr__pfet_01v8_hvt ad=0p pd=0u as=0p ps=0u w=8e+06u l=2e+06u
X219 VSS VSS sky130_fd_pr__cap_mim_m3_1 l=2e+06u w=2e+06u
X220 a_12708_n23080# vpbias a_13166_n23080# VDD sky130_fd_pr__pfet_01v8_hvt ad=0p pd=0u as=4.64e+12p ps=3.316e+07u w=8e+06u l=2e+06u
X221 cs_ring_osc_stage_2/vin VSS sky130_fd_pr__cap_mim_m3_1 l=2e+06u w=2e+06u
X222 cs_ring_osc_stage_5/vin VSS VSS VSS sky130_fd_pr__nfet_01v8 ad=2.9e+11p pd=2.58e+06u as=0p ps=0u w=1e+06u l=2e+06u
X223 a_23827_n15459# cs_ring_osc_stage_1/vin a_23369_n15459# VDD sky130_fd_pr__pfet_01v8_hvt ad=1.74e+12p pd=1.258e+07u as=1.74e+12p ps=1.258e+07u w=6e+06u l=2e+06u
X224 a_23369_n15459# cs_ring_osc_stage_1/vin a_22911_n15459# VDD sky130_fd_pr__pfet_01v8_hvt ad=0p pd=0u as=0p ps=0u w=6e+06u l=2e+06u
X225 VSS VSS VSS VSS sky130_fd_pr__nfet_01v8 ad=0p pd=0u as=0p ps=0u w=1e+06u l=2e+06u
X226 a_33980_n8838# cs_ring_osc_stage_5/voutcs a_33522_n8838# VSS sky130_fd_pr__nfet_01v8 ad=0p pd=0u as=2.9e+11p ps=2.58e+06u w=1e+06u l=2e+06u
X227 VSS VSS sky130_fd_pr__cap_mim_m3_1 l=2e+06u w=2e+06u
X228 a_17148_n26838# cs_ring_osc_stage_2/voutcs VSS VSS sky130_fd_pr__nfet_01v8 ad=2.9e+11p pd=2.58e+06u as=0p ps=0u w=1e+06u l=2e+06u
X229 a_33522_n8838# cs_ring_osc_stage_5/voutcs a_33064_n8838# VSS sky130_fd_pr__nfet_01v8 ad=0p pd=0u as=2.9e+11p ps=2.58e+06u w=1e+06u l=2e+06u
X230 a_14082_n5080# vpbias a_14540_n5080# VDD sky130_fd_pr__pfet_01v8_hvt ad=4.64e+12p pd=3.316e+07u as=4.64e+12p ps=3.316e+07u w=8e+06u l=2e+06u
X231 a_13980_n26838# cs_ring_osc_stage_2/vin a_13522_n26838# VSS sky130_fd_pr__nfet_01v8 ad=2.9e+11p pd=2.58e+06u as=2.9e+11p ps=2.58e+06u w=1e+06u l=2e+06u
X232 a_14540_n5080# vpbias a_14998_n5080# VDD sky130_fd_pr__pfet_01v8_hvt ad=0p pd=0u as=4.64e+12p ps=3.316e+07u w=8e+06u l=2e+06u
X233 a_27708_n5080# vpbias VDD VDD sky130_fd_pr__pfet_01v8_hvt ad=0p pd=0u as=0p ps=0u w=8e+06u l=2e+06u
X234 VSS cs_ring_osc_stage_1/voutcs a_18828_n12966# VSS sky130_fd_pr__nfet_01v8 ad=0p pd=0u as=2.9e+11p ps=2.58e+06u w=1e+06u l=2e+06u
X235 a_28064_n8838# cs_ring_osc_stage_5/vin a_27606_n8838# VSS sky130_fd_pr__nfet_01v8 ad=2.9e+11p pd=2.58e+06u as=2.9e+11p ps=2.58e+06u w=1e+06u l=2e+06u
X236 a_20370_3044# vctrl a_19912_3044# VSS sky130_fd_pr__nfet_01v8 ad=2.9e+11p pd=2.58e+06u as=2.9e+11p ps=2.58e+06u w=1e+06u l=2e+06u
X237 VDD VDD VDD VDD sky130_fd_pr__pfet_01v8_hvt ad=0p pd=0u as=0p ps=0u w=8e+06u l=2e+06u
X238 a_28522_n27506# vctrl a_28064_n27506# VSS sky130_fd_pr__nfet_01v8 ad=2.9e+11p pd=2.58e+06u as=2.9e+11p ps=2.58e+06u w=1e+06u l=2e+06u
X239 a_27606_n8838# cs_ring_osc_stage_5/vin a_27148_n8838# VSS sky130_fd_pr__nfet_01v8 ad=0p pd=0u as=2.9e+11p ps=2.58e+06u w=1e+06u l=2e+06u
X240 VSS VSS sky130_fd_pr__cap_mim_m3_1 l=2e+06u w=2e+06u
X241 a_13981_n7345# vosc a_13523_n7345# VDD sky130_fd_pr__pfet_01v8_hvt ad=1.74e+12p pd=1.258e+07u as=1.74e+12p ps=1.258e+07u w=6e+06u l=2e+06u
X242 VSS VSS sky130_fd_pr__cap_mim_m3_1 l=2e+06u w=2e+06u
X243 cs_ring_osc_stage_1/vin VSS sky130_fd_pr__cap_mim_m3_1 l=2e+06u w=2e+06u
X244 cs_ring_osc_stage_4/vin VSS sky130_fd_pr__cap_mim_m3_1 l=2e+06u w=2e+06u
X245 a_36080_n12298# vctrl VSS VSS sky130_fd_pr__nfet_01v8 ad=2.9e+11p pd=2.58e+06u as=0p ps=0u w=1e+06u l=2e+06u
X246 VSS VSS sky130_fd_pr__cap_mim_m3_1 l=2e+06u w=2e+06u
X247 VSS VSS sky130_fd_pr__cap_mim_m3_1 l=2e+06u w=2e+06u
X248 a_28980_n9506# vctrl a_28522_n9506# VSS sky130_fd_pr__nfet_01v8 ad=0p pd=0u as=2.9e+11p ps=2.58e+06u w=1e+06u l=2e+06u
X249 a_17314_n18124# vpbias a_16856_n18124# VDD sky130_fd_pr__pfet_01v8_hvt ad=0p pd=0u as=0p ps=0u w=8e+06u l=2e+06u
X250 VDD VDD cs_ring_osc_stage_0/voutcs VDD sky130_fd_pr__pfet_01v8_hvt ad=0p pd=0u as=1.74e+12p ps=1.258e+07u w=6e+06u l=2e+06u
X251 cs_ring_osc_stage_0/voutcs vosc a_14897_n7345# VDD sky130_fd_pr__pfet_01v8_hvt ad=0p pd=0u as=0p ps=0u w=6e+06u l=2e+06u
X252 a_28522_n9506# vctrl a_28064_n9506# VSS sky130_fd_pr__nfet_01v8 ad=0p pd=0u as=2.9e+11p ps=2.58e+06u w=1e+06u l=2e+06u