* NGSPICE file created from se_fold_casc_wide_swing_ota_flat.ext - technology: sky130A

.subckt se_fold_casc_wide_swing_ota_flat vip vim vo ibiasn VDD VSS
X0 vbias2 vbias1 vbias1 VSS sky130_fd_pr__nfet_01v8_lvt ad=0p pd=0u as=0p ps=0u w=3e+06u l=4.8e+06u
X1 VDD VDD vo VDD sky130_fd_pr__pfet_01v8 ad=0p pd=0u as=0p ps=0u w=3e+06u l=4.8e+06u
X2 vtail_cascn vtail_cascn vtail_cascn VSS sky130_fd_pr__nfet_01v8_lvt ad=0p pd=0u as=0p ps=0u w=3e+06u l=4.8e+06u
X3 M8d vbias2 M9d VDD sky130_fd_pr__pfet_01v8 ad=0p pd=0u as=0p ps=0u w=3e+06u l=4.8e+06u
X4 vbias2 vbias1 vbias1 VSS sky130_fd_pr__nfet_01v8_lvt ad=0p pd=0u as=0p ps=0u w=3e+06u l=4.8e+06u
X5 VSS vbias4 vcascnm VSS sky130_fd_pr__nfet_01v8 ad=0p pd=0u as=0p ps=0u w=3e+06u l=4.8e+06u
X6 vtail_cascp vbias1 VDD VDD sky130_fd_pr__pfet_01v8_lvt ad=0p pd=0u as=0p ps=0u w=3e+06u l=4.8e+06u
X7 M13d vbias1 VDD VDD sky130_fd_pr__pfet_01v8_lvt ad=0p pd=0u as=0p ps=0u w=3e+06u l=4.8e+06u
X8 M8d M8d vbias3 VSS sky130_fd_pr__nfet_01v8 ad=0p pd=0u as=0p ps=0u w=3e+06u l=4.8e+06u
X9 vbias2 vbias1 vbias1 VSS sky130_fd_pr__nfet_01v8_lvt ad=0p pd=0u as=0p ps=0u w=3e+06u l=4.8e+06u
X10 vcascnm vbias3 vmirror VSS sky130_fd_pr__nfet_01v8 ad=0p pd=0u as=0p ps=0u w=3e+06u l=4.8e+06u
X11 VDD vmirror vcascpm VDD sky130_fd_pr__pfet_01v8_lvt ad=0p pd=0u as=0p ps=0u w=3e+06u l=4.8e+06u
X12 VSS vbias4 vtail_cascn VSS sky130_fd_pr__nfet_01v8 ad=0p pd=0u as=0p ps=0u w=3e+06u l=4.8e+06u
X13 vbias2 vbias1 vbias1 VSS sky130_fd_pr__nfet_01v8_lvt ad=0p pd=0u as=0p ps=0u w=3e+06u l=4.8e+06u
X14 VSS VSS sky130_fd_pr__cap_mim_m3_2 l=4e+06u w=2.9e+07u
X15 M8d M8d vbias3 VSS sky130_fd_pr__nfet_01v8 ad=0p pd=0u as=0p ps=0u w=3e+06u l=4.8e+06u
X16 M8d M8d vbias3 VSS sky130_fd_pr__nfet_01v8 ad=0p pd=0u as=0p ps=0u w=3e+06u l=4.8e+06u
X17 vbias2 vbias1 vbias1 VSS sky130_fd_pr__nfet_01v8_lvt ad=0p pd=0u as=0p ps=0u w=3e+06u l=4.8e+06u
X18 vbias3 M8d M8d VSS sky130_fd_pr__nfet_01v8 ad=0p pd=0u as=0p ps=0u w=3e+06u l=4.8e+06u
X19 VSS vbias4 vcascnp VSS sky130_fd_pr__nfet_01v8 ad=0p pd=0u as=0p ps=0u w=3e+06u l=4.8e+06u
X20 vtail_cascn vtail_cascn vtail_cascn VSS sky130_fd_pr__nfet_01v8_lvt ad=0p pd=0u as=0p ps=0u w=3e+06u l=4.8e+06u
X21 VSS VSS sky130_fd_pr__cap_mim_m3_2 l=3.1e+07u w=2e+06u
X22 VDD VDD VDD VDD sky130_fd_pr__pfet_01v8_lvt ad=0p pd=0u as=0p ps=0u w=3e+06u l=4.8e+06u
X23 VSS vbias4 vtail_cascn VSS sky130_fd_pr__nfet_01v8 ad=0p pd=0u as=0p ps=0u w=3e+06u l=4.8e+06u
X24 vtail_cascn vbias4 VSS VSS sky130_fd_pr__nfet_01v8 ad=0p pd=0u as=0p ps=0u w=3e+06u l=4.8e+06u
X25 vo VSS sky130_fd_pr__cap_mim_m3_1 l=2.4e+07u w=2.6e+07u
X26 M8d M8d vbias3 VSS sky130_fd_pr__nfet_01v8 ad=0p pd=0u as=0p ps=0u w=3e+06u l=4.8e+06u
X27 VSS VSS VSS VSS sky130_fd_pr__nfet_01v8 ad=0p pd=0u as=0p ps=0u w=3e+06u l=4.8e+06u
X28 VDD VDD VDD VDD sky130_fd_pr__pfet_01v8_lvt ad=0p pd=0u as=0p ps=0u w=3e+06u l=4.8e+06u
X29 VDD VDD vbias1 VDD sky130_fd_pr__pfet_01v8 ad=0p pd=0u as=0p ps=0u w=3e+06u l=4.8e+06u
X30 vbias1 vbias1 vbias1 VSS sky130_fd_pr__nfet_01v8_lvt ad=0p pd=0u as=0p ps=0u w=3e+06u l=4.8e+06u
X31 vcascnm vbias4 VSS VSS sky130_fd_pr__nfet_01v8 ad=0p pd=0u as=0p ps=0u w=3e+06u l=4.8e+06u
X32 vmirror vmirror vmirror VDD sky130_fd_pr__pfet_01v8 ad=0p pd=0u as=0p ps=0u w=3e+06u l=4.8e+06u
X33 vtail_cascn vip vcascpm VSS sky130_fd_pr__nfet_01v8_lvt ad=0p pd=0u as=0p ps=0u w=3e+06u l=4.8e+06u
X34 M8d M8d vbias3 VSS sky130_fd_pr__nfet_01v8 ad=0p pd=0u as=0p ps=0u w=3e+06u l=4.8e+06u
X35 vbias4 vbias3 a_4604_n22232# VSS sky130_fd_pr__nfet_01v8 ad=0p pd=0u as=0p ps=0u w=3e+06u l=4.8e+06u
X36 vcascnm vbias4 VSS VSS sky130_fd_pr__nfet_01v8 ad=0p pd=0u as=0p ps=0u w=3e+06u l=4.8e+06u
X37 VSS vbias4 vcascnp VSS sky130_fd_pr__nfet_01v8 ad=0p pd=0u as=0p ps=0u w=3e+06u l=4.8e+06u
X38 vmirror vbias3 vcascnm VSS sky130_fd_pr__nfet_01v8 ad=0p pd=0u as=0p ps=0u w=3e+06u l=4.8e+06u
X39 vtail_cascn vim vcascpp VSS sky130_fd_pr__nfet_01v8_lvt ad=0p pd=0u as=0p ps=0u w=3e+06u l=4.8e+06u
X40 vmirror vbias3 vcascnm VSS sky130_fd_pr__nfet_01v8 ad=0p pd=0u as=0p ps=0u w=3e+06u l=4.8e+06u
X41 vmirror vbias2 vcascpm VDD sky130_fd_pr__pfet_01v8 ad=0p pd=0u as=0p ps=0u w=3e+06u l=4.8e+06u
X42 vcascnm vbias4 VSS VSS sky130_fd_pr__nfet_01v8 ad=0p pd=0u as=0p ps=0u w=3e+06u l=4.8e+06u
X43 vtail_cascn vbias4 VSS VSS sky130_fd_pr__nfet_01v8 ad=0p pd=0u as=0p ps=0u w=3e+06u l=4.8e+06u
X44 ibiasn ibiasn ibiasn VSS sky130_fd_pr__nfet_01v8 ad=0p pd=0u as=0p ps=0u w=3e+06u l=4.8e+06u
X45 vtail_cascn vim vcascpp VSS sky130_fd_pr__nfet_01v8_lvt ad=0p pd=0u as=0p ps=0u w=3e+06u l=4.8e+06u
X46 VDD vbias1 M9d VDD sky130_fd_pr__pfet_01v8_lvt ad=0p pd=0u as=0p ps=0u w=3e+06u l=4.8e+06u
X47 vbias1 vbias1 vbias2 VSS sky130_fd_pr__nfet_01v8_lvt ad=0p pd=0u as=0p ps=0u w=3e+06u l=4.8e+06u
X48 M7d M7d M7d VDD sky130_fd_pr__pfet_01v8_lvt ad=0p pd=0u as=0p ps=0u w=3e+06u l=4.8e+06u
X49 M16d VDD VDD VDD sky130_fd_pr__pfet_01v8 ad=0p pd=0u as=0p ps=0u w=3e+06u l=4.8e+06u
X50 VSS vo sky130_fd_pr__cap_mim_m3_2 l=2.6e+07u w=2.4e+07u
X51 vmirror vbias3 vcascnm VSS sky130_fd_pr__nfet_01v8 ad=0p pd=0u as=0p ps=0u w=3e+06u l=4.8e+06u
X52 vbias1 vbias1 vbias1 VSS sky130_fd_pr__nfet_01v8_lvt ad=0p pd=0u as=0p ps=0u w=3e+06u l=4.8e+06u
X53 VDD VDD VDD VDD sky130_fd_pr__pfet_01v8 ad=0p pd=0u as=0p ps=0u w=3e+06u l=4.8e+06u
X54 M9d vbias2 M8d VDD sky130_fd_pr__pfet_01v8 ad=0p pd=0u as=0p ps=0u w=3e+06u l=4.8e+06u
X55 vtail_cascn vip vcascpm VSS sky130_fd_pr__nfet_01v8_lvt ad=0p pd=0u as=0p ps=0u w=3e+06u l=4.8e+06u
X56 vbias2 vbias1 vbias1 VSS sky130_fd_pr__nfet_01v8_lvt ad=0p pd=0u as=0p ps=0u w=3e+06u l=4.8e+06u
X57 vbias3 M8d M8d VSS sky130_fd_pr__nfet_01v8 ad=0p pd=0u as=0p ps=0u w=3e+06u l=4.8e+06u
X58 vcascpp vmirror VDD VDD sky130_fd_pr__pfet_01v8_lvt ad=0p pd=0u as=0p ps=0u w=3e+06u l=4.8e+06u
X59 vbias1 vbias1 vbias1 VSS sky130_fd_pr__nfet_01v8_lvt ad=0p pd=0u as=0p ps=0u w=3e+06u l=4.8e+06u
X60 M7d vbias1 VDD VDD sky130_fd_pr__pfet_01v8_lvt ad=0p pd=0u as=0p ps=0u w=3e+06u l=4.8e+06u
X61 vcascpp vmirror VDD VDD sky130_fd_pr__pfet_01v8_lvt ad=0p pd=0u as=0p ps=0u w=3e+06u l=4.8e+06u
X62 vtail_cascn vtail_cascn vtail_cascn VSS sky130_fd_pr__nfet_01v8_lvt ad=0p pd=0u as=0p ps=0u w=3e+06u l=4.8e+06u
X63 vcascnm vbias4 VSS VSS sky130_fd_pr__nfet_01v8 ad=0p pd=0u as=0p ps=0u w=3e+06u l=4.8e+06u
X64 vbias2 vbias1 vbias1 VSS sky130_fd_pr__nfet_01v8_lvt ad=0p pd=0u as=0p ps=0u w=3e+06u l=4.8e+06u
X65 VSS vbias4 vcascnm VSS sky130_fd_pr__nfet_01v8 ad=0p pd=0u as=0p ps=0u w=3e+06u l=4.8e+06u
X66 VSS vbias4 vcascnm VSS sky130_fd_pr__nfet_01v8 ad=0p pd=0u as=0p ps=0u w=3e+06u l=4.8e+06u
X67 VDD VDD VDD VDD sky130_fd_pr__pfet_01v8_lvt ad=0p pd=0u as=0p ps=0u w=3e+06u l=4.8e+06u
X68 vbias3 M8d M8d VSS sky130_fd_pr__nfet_01v8 ad=0p pd=0u as=0p ps=0u w=3e+06u l=4.8e+06u
X69 a_4604_n22232# vbias4 VSS VSS sky130_fd_pr__nfet_01v8 ad=0p pd=0u as=0p ps=0u w=3e+06u l=4.8e+06u
X70 VSS VSS VSS VSS sky130_fd_pr__nfet_01v8 ad=0p pd=0u as=0p ps=0u w=3e+06u l=4.8e+06u
X71 vcascpm VDD VDD VDD sky130_fd_pr__pfet_01v8 ad=0p pd=0u as=0p ps=0u w=3e+06u l=4.8e+06u
X72 vtail_cascn vtail_cascn vtail_cascn VSS sky130_fd_pr__nfet_01v8_lvt ad=0p pd=0u as=0p ps=0u w=3e+06u l=4.8e+06u
X73 VSS vbias4 vcascnp VSS sky130_fd_pr__nfet_01v8 ad=0p pd=0u as=0p ps=0u w=3e+06u l=4.8e+06u
X74 vcascpm vip vtail_cascn VSS sky130_fd_pr__nfet_01v8_lvt ad=0p pd=0u as=0p ps=0u w=3e+06u l=4.8e+06u
X75 VDD vbias1 vtail_cascp VDD sky130_fd_pr__pfet_01v8_lvt ad=0p pd=0u as=0p ps=0u w=3e+06u l=4.8e+06u
X76 vcascnm vbias4 VSS VSS sky130_fd_pr__nfet_01v8 ad=0p pd=0u as=0p ps=0u w=3e+06u l=4.8e+06u
X77 ibiasn ibiasn VSS VSS sky130_fd_pr__nfet_01v8 ad=0p pd=0u as=0p ps=0u w=3e+06u l=4.8e+06u
X78 VSS VSS VSS VSS sky130_fd_pr__nfet_01v8 ad=0p pd=0u as=0p ps=0u w=3e+06u l=4.8e+06u
X79 vmirror vmirror vmirror VSS sky130_fd_pr__nfet_01v8 ad=0p pd=0u as=0p ps=0u w=3e+06u l=4.8e+06u
X80 VSS vbias4 vcascnm VSS sky130_fd_pr__nfet_01v8 ad=0p pd=0u as=0p ps=0u w=3e+06u l=4.8e+06u
X81 vtail_cascn vim vcascpp VSS sky130_fd_pr__nfet_01v8_lvt ad=0p pd=0u as=0p ps=0u w=3e+06u l=4.8e+06u
X82 vcascnm vcascnm vcascnm VDD sky130_fd_pr__pfet_01v8_lvt ad=0p pd=0u as=0p ps=0u w=3e+06u l=4.8e+06u
X83 VSS VSS sky130_fd_pr__cap_mim_m3_2 l=4e+06u w=2.9e+07u
X84 vbias2 vbias1 vbias1 VSS sky130_fd_pr__nfet_01v8_lvt ad=0p pd=0u as=0p ps=0u w=3e+06u l=4.8e+06u
X85 vtail_cascn vim vcascpp VSS sky130_fd_pr__nfet_01v8_lvt ad=0p pd=0u as=0p ps=0u w=3e+06u l=4.8e+06u
X86 VDD vmirror vcascpm VDD sky130_fd_pr__pfet_01v8_lvt ad=0p pd=0u as=0p ps=0u w=3e+06u l=4.8e+06u
X87 VSS vbias4 vtail_cascn VSS sky130_fd_pr__nfet_01v8 ad=0p pd=0u as=0p ps=0u w=3e+06u l=4.8e+06u
X88 vmirror vbias3 vcascnm VSS sky130_fd_pr__nfet_01v8 ad=0p pd=0u as=0p ps=0u w=3e+06u l=4.8e+06u
X89 M9d vbias1 VDD VDD sky130_fd_pr__pfet_01v8_lvt ad=0p pd=0u as=0p ps=0u w=3e+06u l=4.8e+06u
X90 VSS vbias4 vcascnm VSS sky130_fd_pr__nfet_01v8 ad=0p pd=0u as=0p ps=0u w=3e+06u l=4.8e+06u
X91 VSS vbias4 vtail_cascn VSS sky130_fd_pr__nfet_01v8 ad=0p pd=0u as=0p ps=0u w=3e+06u l=4.8e+06u
X92 vcascpp vim vtail_cascn VSS sky130_fd_pr__nfet_01v8_lvt ad=0p pd=0u as=0p ps=0u w=3e+06u l=4.8e+06u
X93 vbias1 vbias1 vbias2 VSS sky130_fd_pr__nfet_01v8_lvt ad=0p pd=0u as=0p ps=0u w=3e+06u l=4.8e+06u
X94 vmirror vmirror vmirror VDD sky130_fd_pr__pfet_01v8 ad=0p pd=0u as=0p ps=0u w=3e+06u l=4.8e+06u
X95 vcascnm vbias4 VSS VSS sky130_fd_pr__nfet_01v8 ad=0p pd=0u as=0p ps=0u w=3e+06u l=4.8e+06u
X96 vbias2 vbias1 vbias1 VSS sky130_fd_pr__nfet_01v8_lvt ad=0p pd=0u as=0p ps=0u w=3e+06u l=4.8e+06u
X97 vtail_cascn vip vcascpm VSS sky130_fd_pr__nfet_01v8_lvt ad=0p pd=0u as=0p ps=0u w=3e+06u l=4.8e+06u
X98 vcascnp vbias4 VSS VSS sky130_fd_pr__nfet_01v8 ad=0p pd=0u as=0p ps=0u w=3e+06u l=4.8e+06u
X99 vcascpp vcascpp vcascpp VDD sky130_fd_pr__pfet_01v8_lvt ad=0p pd=0u as=0p ps=0u w=3e+06u l=4.8e+06u
X100 vo vbias3 vcascnp VSS sky130_fd_pr__nfet_01v8 ad=0p pd=0u as=0p ps=0u w=3e+06u l=4.8e+06u
X101 vtail_cascn vip vcascpm VSS sky130_fd_pr__nfet_01v8_lvt ad=0p pd=0u as=0p ps=0u w=3e+06u l=4.8e+06u
X102 vbias4 vbias3 a_4604_n22232# VSS sky130_fd_pr__nfet_01v8 ad=0p pd=0u as=0p ps=0u w=3e+06u l=4.8e+06u
X103 vo VSS sky130_fd_pr__cap_mim_m3_1 l=2.4e+07u w=2.6e+07u
X104 vbias1 vbias1 vbias2 VSS sky130_fd_pr__nfet_01v8_lvt ad=0p pd=0u as=0p ps=0u w=3e+06u l=4.8e+06u
X105 vbias1 vbias1 vbias1 VSS sky130_fd_pr__nfet_01v8_lvt ad=0p pd=0u as=0p ps=0u w=3e+06u l=4.8e+06u
X106 vtail_cascn vip vcascpm VSS sky130_fd_pr__nfet_01v8_lvt ad=0p pd=0u as=0p ps=0u w=3e+06u l=4.8e+06u
X107 VDD vbias1 M7d VDD sky130_fd_pr__pfet_01v8_lvt ad=0p pd=0u as=0p ps=0u w=3e+06u l=4.8e+06u
X108 vmirror vbias3 vcascnm VSS sky130_fd_pr__nfet_01v8 ad=0p pd=0u as=0p ps=0u w=3e+06u l=4.8e+06u
X109 vcascpp vbias2 vo VDD sky130_fd_pr__pfet_01v8 ad=0p pd=0u as=0p ps=0u w=3e+06u l=4.8e+06u
X110 vo vbias3 vcascnp VSS sky130_fd_pr__nfet_01v8 ad=0p pd=0u as=0p ps=0u w=3e+06u l=4.8e+06u
X111 vbias2 vbias2 vbias2 VSS sky130_fd_pr__nfet_01v8_lvt ad=0p pd=0u as=0p ps=0u w=3e+06u l=4.8e+06u
X112 M9d vbias1 VDD VDD sky130_fd_pr__pfet_01v8_lvt ad=0p pd=0u as=0p ps=0u w=3e+06u l=4.8e+06u
X113 VSS vbias4 a_4604_n22232# VSS sky130_fd_pr__nfet_01v8 ad=0p pd=0u as=0p ps=0u w=3e+06u l=4.8e+06u
X114 vcascnp vcascnp vcascnp VSS sky130_fd_pr__nfet_01v8 ad=0p pd=0u as=0p ps=0u w=3e+06u l=4.8e+06u
X115 vcascpp vmirror VDD VDD sky130_fd_pr__pfet_01v8_lvt ad=0p pd=0u as=0p ps=0u w=3e+06u l=4.8e+06u
X116 vtail_cascn vim vcascpp VSS sky130_fd_pr__nfet_01v8_lvt ad=0p pd=0u as=0p ps=0u w=3e+06u l=4.8e+06u
X117 vtail_cascn vtail_cascn vtail_cascn VSS sky130_fd_pr__nfet_01v8 ad=0p pd=0u as=0p ps=0u w=3e+06u l=4.8e+06u
X118 vcascpp vcascpp vcascpp VDD sky130_fd_pr__pfet_01v8_lvt ad=0p pd=0u as=0p ps=0u w=3e+06u l=4.8e+06u
X119 vtail_cascn vbias4 VSS VSS sky130_fd_pr__nfet_01v8 ad=0p pd=0u as=0p ps=0u w=3e+06u l=4.8e+06u
X120 VDD vbias1 M13d VDD sky130_fd_pr__pfet_01v8_lvt ad=0p pd=0u as=0p ps=0u w=3e+06u l=4.8e+06u
X121 VDD vbias1 vtail_cascp VDD sky130_fd_pr__pfet_01v8_lvt ad=0p pd=0u as=0p ps=0u w=3e+06u l=4.8e+06u
X122 ibiasn ibiasn VSS VSS sky130_fd_pr__nfet_01v8 ad=0p pd=0u as=0p ps=0u w=3e+06u l=4.8e+06u
X123 VDD VDD VDD VDD sky130_fd_pr__pfet_01v8_lvt ad=0p pd=0u as=0p ps=0u w=3e+06u l=4.8e+06u
X124 vmirror vmirror vmirror VSS sky130_fd_pr__nfet_01v8 ad=0p pd=0u as=0p ps=0u w=3e+06u l=4.8e+06u
X125 vcascnp vbias3 vo VSS sky130_fd_pr__nfet_01v8 ad=0p pd=0u as=0p ps=0u w=3e+06u l=4.8e+06u
X126 VSS vo sky130_fd_pr__cap_mim_m3_2 l=2.6e+07u w=2.4e+07u
X127 vcascnm vbias4 VSS VSS sky130_fd_pr__nfet_01v8 ad=0p pd=0u as=0p ps=0u w=3e+06u l=4.8e+06u
X128 a_4604_n22232# vbias4 VSS VSS sky130_fd_pr__nfet_01v8 ad=0p pd=0u as=0p ps=0u w=3e+06u l=4.8e+06u
X129 vcascnp vbias4 VSS VSS sky130_fd_pr__nfet_01v8 ad=0p pd=0u as=0p ps=0u w=3e+06u l=4.8e+06u
X130 vcascpp vim vtail_cascn VSS sky130_fd_pr__nfet_01v8_lvt ad=0p pd=0u as=0p ps=0u w=3e+06u l=4.8e+06u
X131 vcascpm VDD VDD VDD sky130_fd_pr__pfet_01v8 ad=0p pd=0u as=0p ps=0u w=3e+06u l=4.8e+06u
X132 vbias1 vbias1 vbias1 VSS sky130_fd_pr__nfet_01v8_lvt ad=0p pd=0u as=0p ps=0u w=3e+06u l=4.8e+06u
X133 VSS VSS sky130_fd_pr__cap_mim_m3_2 l=4e+06u w=2.9e+07u
X134 vbias2 vbias1 vbias1 VSS sky130_fd_pr__nfet_01v8_lvt ad=0p pd=0u as=0p ps=0u w=3e+06u l=4.8e+06u
X135 vtail_cascp vip vcascnm VDD sky130_fd_pr__pfet_01v8_lvt ad=0p pd=0u as=0p ps=0u w=3e+06u l=4.8e+06u
X136 M7d M7d M7d VDD sky130_fd_pr__pfet_01v8 ad=0p pd=0u as=0p ps=0u w=3e+06u l=4.8e+06u
X137 vbias2 ibiasn VSS VSS sky130_fd_pr__nfet_01v8 ad=0p pd=0u as=0p ps=0u w=3e+06u l=4.8e+06u
X138 vcascpp vim vtail_cascn VSS sky130_fd_pr__nfet_01v8_lvt ad=0p pd=0u as=0p ps=0u w=3e+06u l=4.8e+06u
X139 M8d M8d vbias3 VSS sky130_fd_pr__nfet_01v8 ad=0p pd=0u as=0p ps=0u w=3e+06u l=4.8e+06u
X140 vcascnp vbias4 VSS VSS sky130_fd_pr__nfet_01v8 ad=0p pd=0u as=0p ps=0u w=3e+06u l=4.8e+06u
X141 vcascnp vbias4 VSS VSS sky130_fd_pr__nfet_01v8 ad=0p pd=0u as=0p ps=0u w=3e+06u l=4.8e+06u
X142 a_4604_n22232# vbias3 vbias4 VSS sky130_fd_pr__nfet_01v8 ad=0p pd=0u as=0p ps=0u w=3e+06u l=4.8e+06u
X143 vcascpp vmirror VDD VDD sky130_fd_pr__pfet_01v8_lvt ad=0p pd=0u as=0p ps=0u w=3e+06u l=4.8e+06u
X144 vbias2 vbias1 vbias1 VSS sky130_fd_pr__nfet_01v8_lvt ad=0p pd=0u as=0p ps=0u w=3e+06u l=4.8e+06u
X145 vtail_cascn vip vcascpm VSS sky130_fd_pr__nfet_01v8_lvt ad=0p pd=0u as=0p ps=0u w=3e+06u l=4.8e+06u
X146 vbias2 vbias1 vbias1 VSS sky130_fd_pr__nfet_01v8_lvt ad=0p pd=0u as=0p ps=0u w=3e+06u l=4.8e+06u
X147 vbias3 M8d M8d VSS sky130_fd_pr__nfet_01v8 ad=0p pd=0u as=0p ps=0u w=3e+06u l=4.8e+06u
X148 vcascnm vbias3 vmirror VSS sky130_fd_pr__nfet_01v8 ad=0p pd=0u as=0p ps=0u w=3e+06u l=4.8e+06u
X149 vcascpm vip vtail_cascn VSS sky130_fd_pr__nfet_01v8_lvt ad=0p pd=0u as=0p ps=0u w=3e+06u l=4.8e+06u
X150 vtail_cascn vbias4 VSS VSS sky130_fd_pr__nfet_01v8 ad=0p pd=0u as=0p ps=0u w=3e+06u l=4.8e+06u
X151 VDD vbias1 M7d VDD sky130_fd_pr__pfet_01v8_lvt ad=0p pd=0u as=0p ps=0u w=3e+06u l=4.8e+06u
X152 vcascnp vbias4 VSS VSS sky130_fd_pr__nfet_01v8 ad=0p pd=0u as=0p ps=0u w=3e+06u l=4.8e+06u
X153 vcascpm vip vtail_cascn VSS sky130_fd_pr__nfet_01v8_lvt ad=0p pd=0u as=0p ps=0u w=3e+06u l=4.8e+06u
X154 vo vbias2 vcascpp VDD sky130_fd_pr__pfet_01v8 ad=0p pd=0u as=0p ps=0u w=3e+06u l=4.8e+06u
X155 M7d vbias2 vbias1 VDD sky130_fd_pr__pfet_01v8 ad=0p pd=0u as=0p ps=0u w=3e+06u l=4.8e+06u
X156 vo vbias3 vcascnp VSS sky130_fd_pr__nfet_01v8 ad=0p pd=0u as=0p ps=0u w=3e+06u l=4.8e+06u
X157 a_4604_n22232# vbias4 VSS VSS sky130_fd_pr__nfet_01v8 ad=0p pd=0u as=0p ps=0u w=3e+06u l=4.8e+06u
X158 a_4604_n22232# vbias4 VSS VSS sky130_fd_pr__nfet_01v8 ad=0p pd=0u as=0p ps=0u w=3e+06u l=4.8e+06u
X159 vcascnp vbias3 vo VSS sky130_fd_pr__nfet_01v8 ad=0p pd=0u as=0p ps=0u w=3e+06u l=4.8e+06u
X160 vo vbias2 vcascpp VDD sky130_fd_pr__pfet_01v8 ad=0p pd=0u as=0p ps=0u w=3e+06u l=4.8e+06u
X161 vtail_cascn vim vcascpp VSS sky130_fd_pr__nfet_01v8_lvt ad=0p pd=0u as=0p ps=0u w=3e+06u l=4.8e+06u
X162 M16d M16d VSS VSS sky130_fd_pr__nfet_01v8 ad=0p pd=0u as=0p ps=0u w=3e+06u l=4.8e+06u
X163 vbias2 vbias1 vbias1 VSS sky130_fd_pr__nfet_01v8_lvt ad=0p pd=0u as=0p ps=0u w=3e+06u l=4.8e+06u
X164 M13d VDD VDD VDD sky130_fd_pr__pfet_01v8 ad=0p pd=0u as=0p ps=0u w=3e+06u l=4.8e+06u
X165 VDD vmirror vcascpp VDD sky130_fd_pr__pfet_01v8_lvt ad=0p pd=0u as=0p ps=0u w=3e+06u l=4.8e+06u
X166 VDD vmirror vcascpp VDD sky130_fd_pr__pfet_01v8_lvt ad=0p pd=0u as=0p ps=0u w=3e+06u l=4.8e+06u
X167 vbias4 vbias3 a_4604_n22232# VSS sky130_fd_pr__nfet_01v8 ad=0p pd=0u as=0p ps=0u w=3e+06u l=4.8e+06u
X168 M8d M8d vbias3 VSS sky130_fd_pr__nfet_01v8 ad=0p pd=0u as=0p ps=0u w=3e+06u l=4.8e+06u
X169 VSS vbias4 vcascnp VSS sky130_fd_pr__nfet_01v8 ad=0p pd=0u as=0p ps=0u w=3e+06u l=4.8e+06u
X170 M9d M9d M9d VDD sky130_fd_pr__pfet_01v8_lvt ad=0p pd=0u as=0p ps=0u w=3e+06u l=4.8e+06u
X171 M8d M8d vbias3 VSS sky130_fd_pr__nfet_01v8 ad=0p pd=0u as=0p ps=0u w=3e+06u l=4.8e+06u
X172 VSS ibiasn vbias2 VSS sky130_fd_pr__nfet_01v8 ad=0p pd=0u as=0p ps=0u w=3e+06u l=4.8e+06u
X173 vmirror vbias3 vcascnm VSS sky130_fd_pr__nfet_01v8 ad=0p pd=0u as=0p ps=0u w=3e+06u l=4.8e+06u
X174 M13d vbias1 VDD VDD sky130_fd_pr__pfet_01v8_lvt ad=0p pd=0u as=0p ps=0u w=3e+06u l=4.8e+06u
X175 VSS vbias4 vtail_cascn VSS sky130_fd_pr__nfet_01v8 ad=0p pd=0u as=0p ps=0u w=3e+06u l=4.8e+06u
X176 vcascpp VDD VDD VDD sky130_fd_pr__pfet_01v8 ad=0p pd=0u as=0p ps=0u w=3e+06u l=4.8e+06u
X177 vbias1 vbias1 vbias1 VSS sky130_fd_pr__nfet_01v8_lvt ad=0p pd=0u as=0p ps=0u w=3e+06u l=4.8e+06u
X178 vbias2 vbias1 vbias1 VSS sky130_fd_pr__nfet_01v8_lvt ad=0p pd=0u as=0p ps=0u w=3e+06u l=4.8e+06u
X179 vmirror vbias2 vcascpm VDD sky130_fd_pr__pfet_01v8 ad=0p pd=0u as=0p ps=0u w=3e+06u l=4.8e+06u
X180 M8d M8d vbias3 VSS sky130_fd_pr__nfet_01v8 ad=0p pd=0u as=0p ps=0u w=3e+06u l=4.8e+06u
X181 VSS ibiasn ibiasn VSS sky130_fd_pr__nfet_01v8 ad=0p pd=0u as=0p ps=0u w=3e+06u l=4.8e+06u
X182 vcascnp vim vtail_cascp VDD sky130_fd_pr__pfet_01v8_lvt ad=0p pd=0u as=0p ps=0u w=3e+06u l=4.8e+06u
X183 vbias2 vbias1 vbias1 VSS sky130_fd_pr__nfet_01v8_lvt ad=0p pd=0u as=0p ps=0u w=3e+06u l=4.8e+06u
X184 vcascnm vcascnm vcascnm VSS sky130_fd_pr__nfet_01v8 ad=0p pd=0u as=0p ps=0u w=3e+06u l=4.8e+06u
X185 VSS vbias4 vtail_cascn VSS sky130_fd_pr__nfet_01v8 ad=0p pd=0u as=0p ps=0u w=3e+06u l=4.8e+06u
X186 VSS VSS sky130_fd_pr__cap_mim_m3_2 l=3.1e+07u w=2e+06u
X187 vcascnp vbias4 VSS VSS sky130_fd_pr__nfet_01v8 ad=0p pd=0u as=0p ps=0u w=3e+06u l=4.8e+06u
X188 VDD vmirror vcascpp VDD sky130_fd_pr__pfet_01v8_lvt ad=0p pd=0u as=0p ps=0u w=3e+06u l=4.8e+06u
X189 vcascpm vip vtail_cascn VSS sky130_fd_pr__nfet_01v8_lvt ad=0p pd=0u as=0p ps=0u w=3e+06u l=4.8e+06u
X190 M9d M9d M9d VDD sky130_fd_pr__pfet_01v8_lvt ad=0p pd=0u as=0p ps=0u w=3e+06u l=4.8e+06u
X191 M8d M8d vbias3 VSS sky130_fd_pr__nfet_01v8 ad=0p pd=0u as=0p ps=0u w=3e+06u l=4.8e+06u
X192 vbias4 vbias3 a_4604_n22232# VSS sky130_fd_pr__nfet_01v8 ad=0p pd=0u as=0p ps=0u w=3e+06u l=4.8e+06u
X193 vo vbias3 vcascnp VSS sky130_fd_pr__nfet_01v8 ad=0p pd=0u as=0p ps=0u w=3e+06u l=4.8e+06u
X194 VSS vbias4 vcascnm VSS sky130_fd_pr__nfet_01v8 ad=0p pd=0u as=0p ps=0u w=3e+06u l=4.8e+06u
X195 vcascnp vbias3 vo VSS sky130_fd_pr__nfet_01v8 ad=0p pd=0u as=0p ps=0u w=3e+06u l=4.8e+06u
X196 vtail_cascn vtail_cascn vtail_cascn VSS sky130_fd_pr__nfet_01v8 ad=0p pd=0u as=0p ps=0u w=3e+06u l=4.8e+06u
X197 vcascnp vcascnp vcascnp VDD sky130_fd_pr__pfet_01v8_lvt ad=0p pd=0u as=0p ps=0u w=3e+06u l=4.8e+06u
X198 vcascnm vbias3 vmirror VSS sky130_fd_pr__nfet_01v8 ad=0p pd=0u as=0p ps=0u w=3e+06u l=4.8e+06u
X199 vo vo vo VDD sky130_fd_pr__pfet_01v8 ad=0p pd=0u as=0p ps=0u w=3e+06u l=4.8e+06u
X200 vbias1 vbias2 M7d VDD sky130_fd_pr__pfet_01v8 ad=0p pd=0u as=0p ps=0u w=3e+06u l=4.8e+06u
X201 a_4604_n22232# vbias3 vbias4 VSS sky130_fd_pr__nfet_01v8 ad=0p pd=0u as=0p ps=0u w=3e+06u l=4.8e+06u
X202 vcascpp vim vtail_cascn VSS sky130_fd_pr__nfet_01v8_lvt ad=0p pd=0u as=0p ps=0u w=3e+06u l=4.8e+06u
X203 vbias1 vbias1 vbias2 VSS sky130_fd_pr__nfet_01v8_lvt ad=0p pd=0u as=0p ps=0u w=3e+06u l=4.8e+06u
X204 vcascnp vbias4 VSS VSS sky130_fd_pr__nfet_01v8 ad=0p pd=0u as=0p ps=0u w=3e+06u l=4.8e+06u
X205 a_4604_n22232# vbias4 VSS VSS sky130_fd_pr__nfet_01v8 ad=0p pd=0u as=0p ps=0u w=3e+06u l=4.8e+06u
X206 M7d vbias1 VDD VDD sky130_fd_pr__pfet_01v8_lvt ad=0p pd=0u as=0p ps=0u w=3e+06u l=4.8e+06u
X207 vcascnm vcascnm vcascnm VDD sky130_fd_pr__pfet_01v8_lvt ad=0p pd=0u as=0p ps=0u w=3e+06u l=4.8e+06u
X208 M8d vbias2 M9d VDD sky130_fd_pr__pfet_01v8 ad=0p pd=0u as=0p ps=0u w=3e+06u l=4.8e+06u
X209 vcascnp vbias4 VSS VSS sky130_fd_pr__nfet_01v8 ad=0p pd=0u as=0p ps=0u w=3e+06u l=4.8e+06u
X210 vcascpm vmirror VDD VDD sky130_fd_pr__pfet_01v8_lvt ad=0p pd=0u as=0p ps=0u w=3e+06u l=4.8e+06u
X211 vcascpm vmirror VDD VDD sky130_fd_pr__pfet_01v8_lvt ad=0p pd=0u as=0p ps=0u w=3e+06u l=4.8e+06u
X212 vbias4 vbias3 a_4604_n22232# VSS sky130_fd_pr__nfet_01v8 ad=0p pd=0u as=0p ps=0u w=3e+06u l=4.8e+06u
X213 a_4604_n22232# vbias3 vbias4 VSS sky130_fd_pr__nfet_01v8 ad=0p pd=0u as=0p ps=0u w=3e+06u l=4.8e+06u
X214 vbias3 M8d M8d VSS sky130_fd_pr__nfet_01v8 ad=0p pd=0u as=0p ps=0u w=3e+06u l=4.8e+06u
X215 VSS vbias4 vcascnp VSS sky130_fd_pr__nfet_01v8 ad=0p pd=0u as=0p ps=0u w=3e+06u l=4.8e+06u
X216 vbias2 vbias1 vbias1 VSS sky130_fd_pr__nfet_01v8_lvt ad=0p pd=0u as=0p ps=0u w=3e+06u l=4.8e+06u
X217 M13d M13d M13d VDD sky130_fd_pr__pfet_01v8_lvt ad=0p pd=0u as=0p ps=0u w=3e+06u l=4.8e+06u
X218 a_4604_n22232# vbias3 vbias4 VSS sky130_fd_pr__nfet_01v8 ad=0p pd=0u as=0p ps=0u w=3e+06u l=4.8e+06u
X219 VDD vmirror vcascpp VDD sky130_fd_pr__pfet_01v8_lvt ad=0p pd=0u as=0p ps=0u w=3e+06u l=4.8e+06u
X220 vcascpm vbias2 vmirror VDD sky130_fd_pr__pfet_01v8 ad=0p pd=0u as=0p ps=0u w=3e+06u l=4.8e+06u
X221 vcascnm vbias4 VSS VSS sky130_fd_pr__nfet_01v8 ad=0p pd=0u as=0p ps=0u w=3e+06u l=4.8e+06u
X222 VSS VSS sky130_fd_pr__cap_mim_m3_2 l=3.1e+07u w=2e+06u
X223 vcascnm vbias4 VSS VSS sky130_fd_pr__nfet_01v8 ad=0p pd=0u as=0p ps=0u w=3e+06u l=4.8e+06u
X224 vbias2 vbias1 vbias1 VSS sky130_fd_pr__nfet_01v8_lvt ad=0p pd=0u as=0p ps=0u w=3e+06u l=4.8e+06u
X225 vtail_cascp vbias1 VDD VDD sky130_fd_pr__pfet_01v8_lvt ad=0p pd=0u as=0p ps=0u w=3e+06u l=4.8e+06u
X226 a_4604_n22232# vbias4 VSS VSS sky130_fd_pr__nfet_01v8 ad=0p pd=0u as=0p ps=0u w=3e+06u l=4.8e+06u
X227 VSS vo sky130_fd_pr__cap_mim_m3_2 l=2.6e+07u w=2.4e+07u
X228 vbias1 vbias1 vbias2 VSS sky130_fd_pr__nfet_01v8_lvt ad=0p pd=0u as=0p ps=0u w=3e+06u l=4.8e+06u
X229 vbias3 M8d M8d VSS sky130_fd_pr__nfet_01v8 ad=0p pd=0u as=0p ps=0u w=3e+06u l=4.8e+06u
X230 VSS vbias4 vcascnp VSS sky130_fd_pr__nfet_01v8 ad=0p pd=0u as=0p ps=0u w=3e+06u l=4.8e+06u
X231 VDD VDD vmirror VDD sky130_fd_pr__pfet_01v8 ad=0p pd=0u as=0p ps=0u w=3e+06u l=4.8e+06u
X232 vbias3 M8d M8d VSS sky130_fd_pr__nfet_01v8 ad=0p pd=0u as=0p ps=0u w=3e+06u l=4.8e+06u
X233 vcascnp vbias3 vo VSS sky130_fd_pr__nfet_01v8 ad=0p pd=0u as=0p ps=0u w=3e+06u l=4.8e+06u
X234 vbias1 vbias1 vbias2 VSS sky130_fd_pr__nfet_01v8_lvt ad=0p pd=0u as=0p ps=0u w=3e+06u l=4.8e+06u
X235 vbias2 vbias1 vbias1 VSS sky130_fd_pr__nfet_01v8_lvt ad=0p pd=0u as=0p ps=0u w=3e+06u l=4.8e+06u
X236 vcascnp vcascnp vcascnp VDD sky130_fd_pr__pfet_01v8_lvt ad=0p pd=0u as=0p ps=0u w=3e+06u l=4.8e+06u
X237 vtail_cascn vbias4 VSS VSS sky130_fd_pr__nfet_01v8 ad=0p pd=0u as=0p ps=0u w=3e+06u l=4.8e+06u
X238 VSS vbias4 vcascnp VSS sky130_fd_pr__nfet_01v8 ad=0p pd=0u as=0p ps=0u w=3e+06u l=4.8e+06u
X239 M13d vbias2 M16d VDD sky130_fd_pr__pfet_01v8 ad=0p pd=0u as=0p ps=0u w=3e+06u l=4.8e+06u
X240 VSS vbias4 vtail_cascn VSS sky130_fd_pr__nfet_01v8 ad=0p pd=0u as=0p ps=0u w=3e+06u l=4.8e+06u
X241 vcascpm vmirror VDD VDD sky130_fd_pr__pfet_01v8_lvt ad=0p pd=0u as=0p ps=0u w=3e+06u l=4.8e+06u
X242 VSS vbias4 vtail_cascn VSS sky130_fd_pr__nfet_01v8 ad=0p pd=0u as=0p ps=0u w=3e+06u l=4.8e+06u
X243 VDD vbias1 M9d VDD sky130_fd_pr__pfet_01v8_lvt ad=0p pd=0u as=0p ps=0u w=3e+06u l=4.8e+06u
X244 vcascnm vbias4 VSS VSS sky130_fd_pr__nfet_01v8 ad=0p pd=0u as=0p ps=0u w=3e+06u l=4.8e+06u
X245 VDD vmirror vcascpp VDD sky130_fd_pr__pfet_01v8_lvt ad=0p pd=0u as=0p ps=0u w=3e+06u l=4.8e+06u
X246 VSS vbias4 vtail_cascn VSS sky130_fd_pr__nfet_01v8 ad=0p pd=0u as=0p ps=0u w=3e+06u l=4.8e+06u
X247 vo vo vo VSS sky130_fd_pr__nfet_01v8 ad=0p pd=0u as=0p ps=0u w=3e+06u l=4.8e+06u
X248 VSS vbias4 a_4604_n22232# VSS sky130_fd_pr__nfet_01v8 ad=0p pd=0u as=0p ps=0u w=3e+06u l=4.8e+06u
X249 VDD vbias1 M13d VDD sky130_fd_pr__pfet_01v8_lvt ad=0p pd=0u as=0p ps=0u w=3e+06u l=4.8e+06u
X250 vtail_cascp vim vcascnp VDD sky130_fd_pr__pfet_01v8_lvt ad=0p pd=0u as=0p ps=0u w=3e+06u l=4.8e+06u
X251 VSS vbias4 vcascnm VSS sky130_fd_pr__nfet_01v8 ad=0p pd=0u as=0p ps=0u w=3e+06u l=4.8e+06u
X252 VSS vbias4 vcascnp VSS sky130_fd_pr__nfet_01v8 ad=0p pd=0u as=0p ps=0u w=3e+06u l=4.8e+06u
X253 vbias1 vbias1 vbias2 VSS sky130_fd_pr__nfet_01v8_lvt ad=0p pd=0u as=0p ps=0u w=3e+06u l=4.8e+06u
X254 vtail_cascn vtail_cascn vtail_cascn VSS sky130_fd_pr__nfet_01v8 ad=0p pd=0u as=0p ps=0u w=3e+06u l=4.8e+06u
X255 a_4604_n22232# vbias3 vbias4 VSS sky130_fd_pr__nfet_01v8 ad=0p pd=0u as=0p ps=0u w=3e+06u l=4.8e+06u
X256 M9d vbias2 M8d VDD sky130_fd_pr__pfet_01v8 ad=0p pd=0u as=0p ps=0u w=3e+06u l=4.8e+06u
X257 vmirror vbias2 vcascpm VDD sky130_fd_pr__pfet_01v8 ad=0p pd=0u as=0p ps=0u w=3e+06u l=4.8e+06u
X258 vtail_cascp vip vcascnm VDD sky130_fd_pr__pfet_01v8_lvt ad=0p pd=0u as=0p ps=0u w=3e+06u l=4.8e+06u
X259 VDD VDD M8d VDD sky130_fd_pr__pfet_01v8 ad=0p pd=0u as=0p ps=0u w=3e+06u l=4.8e+06u
X260 VSS vbias4 vcascnm VSS sky130_fd_pr__nfet_01v8 ad=0p pd=0u as=0p ps=0u w=3e+06u l=4.8e+06u
X261 vbias1 vbias1 vbias2 VSS sky130_fd_pr__nfet_01v8_lvt ad=0p pd=0u as=0p ps=0u w=3e+06u l=4.8e+06u
X262 vtail_cascn vbias4 VSS VSS sky130_fd_pr__nfet_01v8 ad=0p pd=0u as=0p ps=0u w=3e+06u l=4.8e+06u
X263 vbias1 vbias1 vbias1 VSS sky130_fd_pr__nfet_01v8_lvt ad=0p pd=0u as=0p ps=0u w=3e+06u l=4.8e+06u
X264 vo vbias3 vcascnp VSS sky130_fd_pr__nfet_01v8 ad=0p pd=0u as=0p ps=0u w=3e+06u l=4.8e+06u
X265 M8d M8d vbias3 VSS sky130_fd_pr__nfet_01v8 ad=0p pd=0u as=0p ps=0u w=3e+06u l=4.8e+06u
X266 vcascpm vmirror VDD VDD sky130_fd_pr__pfet_01v8_lvt ad=0p pd=0u as=0p ps=0u w=3e+06u l=4.8e+06u
X267 VDD VDD VDD VDD sky130_fd_pr__pfet_01v8 ad=0p pd=0u as=0p ps=0u w=3e+06u l=4.8e+06u
X268 vbias2 vbias1 vbias1 VSS sky130_fd_pr__nfet_01v8_lvt ad=0p pd=0u as=0p ps=0u w=3e+06u l=4.8e+06u
X269 VDD vbias1 vtail_cascp VDD sky130_fd_pr__pfet_01v8_lvt ad=0p pd=0u as=0p ps=0u w=3e+06u l=4.8e+06u
X270 vmirror vbias2 vcascpm VDD sky130_fd_pr__pfet_01v8 ad=0p pd=0u as=0p ps=0u w=3e+06u l=4.8e+06u
X271 vbias2 vbias2 vbias2 VSS sky130_fd_pr__nfet_01v8_lvt ad=0p pd=0u as=0p ps=0u w=3e+06u l=4.8e+06u
X272 vtail_cascn vbias4 VSS VSS sky130_fd_pr__nfet_01v8 ad=0p pd=0u as=0p ps=0u w=3e+06u l=4.8e+06u
X273 VSS vbias4 vtail_cascn VSS sky130_fd_pr__nfet_01v8 ad=0p pd=0u as=0p ps=0u w=3e+06u l=4.8e+06u
X274 VDD VDD VDD VDD sky130_fd_pr__pfet_01v8_lvt ad=0p pd=0u as=0p ps=0u w=3e+06u l=4.8e+06u
X275 VDD VDD VDD VDD sky130_fd_pr__pfet_01v8_lvt ad=0p pd=0u as=0p ps=0u w=3e+06u l=4.8e+06u
X276 vcascnp vbias4 VSS VSS sky130_fd_pr__nfet_01v8 ad=0p pd=0u as=0p ps=0u w=3e+06u l=4.8e+06u
X277 vbias1 vbias1 vbias2 VSS sky130_fd_pr__nfet_01v8_lvt ad=0p pd=0u as=0p ps=0u w=3e+06u l=4.8e+06u
X278 vcascnm vbias4 VSS VSS sky130_fd_pr__nfet_01v8 ad=0p pd=0u as=0p ps=0u w=3e+06u l=4.8e+06u
X279 vbias3 M8d M8d VSS sky130_fd_pr__nfet_01v8 ad=0p pd=0u as=0p ps=0u w=3e+06u l=4.8e+06u
X280 vbias1 vbias1 vbias2 VSS sky130_fd_pr__nfet_01v8_lvt ad=0p pd=0u as=0p ps=0u w=3e+06u l=4.8e+06u
X281 vmirror vbias3 vcascnm VSS sky130_fd_pr__nfet_01v8 ad=0p pd=0u as=0p ps=0u w=3e+06u l=4.8e+06u
X282 vbias1 vbias1 vbias2 VSS sky130_fd_pr__nfet_01v8_lvt ad=0p pd=0u as=0p ps=0u w=3e+06u l=4.8e+06u
X283 VDD VDD VDD VDD sky130_fd_pr__pfet_01v8 ad=0p pd=0u as=0p ps=0u w=3e+06u l=4.8e+06u
X284 vmirror vbias3 vcascnm VSS sky130_fd_pr__nfet_01v8 ad=0p pd=0u as=0p ps=0u w=3e+06u l=4.8e+06u
X285 vbias1 vbias1 vbias2 VSS sky130_fd_pr__nfet_01v8_lvt ad=0p pd=0u as=0p ps=0u w=3e+06u l=4.8e+06u
X286 vcascnp vbias4 VSS VSS sky130_fd_pr__nfet_01v8 ad=0p pd=0u as=0p ps=0u w=3e+06u l=4.8e+06u
X287 vbias3 M8d M8d VSS sky130_fd_pr__nfet_01v8 ad=0p pd=0u as=0p ps=0u w=3e+06u l=4.8e+06u
X288 M8d VDD VDD VDD sky130_fd_pr__pfet_01v8 ad=0p pd=0u as=0p ps=0u w=3e+06u l=4.8e+06u
X289 vcascnp vbias3 vo VSS sky130_fd_pr__nfet_01v8 ad=0p pd=0u as=0p ps=0u w=3e+06u l=4.8e+06u
X290 vbias1 vbias1 vbias2 VSS sky130_fd_pr__nfet_01v8_lvt ad=0p pd=0u as=0p ps=0u w=3e+06u l=4.8e+06u
X291 M16d vbias2 M13d VDD sky130_fd_pr__pfet_01v8 ad=0p pd=0u as=0p ps=0u w=3e+06u l=4.8e+06u
X292 vcascnp vbias4 VSS VSS sky130_fd_pr__nfet_01v8 ad=0p pd=0u as=0p ps=0u w=3e+06u l=4.8e+06u
X293 VDD vmirror vcascpm VDD sky130_fd_pr__pfet_01v8_lvt ad=0p pd=0u as=0p ps=0u w=3e+06u l=4.8e+06u
X294 VSS vbias4 vcascnp VSS sky130_fd_pr__nfet_01v8 ad=0p pd=0u as=0p ps=0u w=3e+06u l=4.8e+06u
X295 vbias2 vbias2 vbias2 VSS sky130_fd_pr__nfet_01v8_lvt ad=0p pd=0u as=0p ps=0u w=3e+06u l=4.8e+06u
X296 vtail_cascp vbias1 VDD VDD sky130_fd_pr__pfet_01v8_lvt ad=0p pd=0u as=0p ps=0u w=3e+06u l=4.8e+06u
X297 vtail_cascn vbias4 VSS VSS sky130_fd_pr__nfet_01v8 ad=0p pd=0u as=0p ps=0u w=3e+06u l=4.8e+06u
X298 vtail_cascn vbias4 VSS VSS sky130_fd_pr__nfet_01v8 ad=0p pd=0u as=0p ps=0u w=3e+06u l=4.8e+06u
X299 vcascpm vmirror VDD VDD sky130_fd_pr__pfet_01v8_lvt ad=0p pd=0u as=0p ps=0u w=3e+06u l=4.8e+06u
X300 vbias2 vbias2 vbias2 VSS sky130_fd_pr__nfet_01v8_lvt ad=0p pd=0u as=0p ps=0u w=3e+06u l=4.8e+06u
X301 vbias3 M8d M8d VSS sky130_fd_pr__nfet_01v8 ad=0p pd=0u as=0p ps=0u w=3e+06u l=4.8e+06u
X302 M8d M8d vbias3 VSS sky130_fd_pr__nfet_01v8 ad=0p pd=0u as=0p ps=0u w=3e+06u l=4.8e+06u
X303 vcascnm vip vtail_cascp VDD sky130_fd_pr__pfet_01v8_lvt ad=0p pd=0u as=0p ps=0u w=3e+06u l=4.8e+06u
X304 vbias2 vbias1 vbias1 VSS sky130_fd_pr__nfet_01v8_lvt ad=0p pd=0u as=0p ps=0u w=3e+06u l=4.8e+06u
X305 VSS vbias4 vcascnp VSS sky130_fd_pr__nfet_01v8 ad=0p pd=0u as=0p ps=0u w=3e+06u l=4.8e+06u
X306 vcascpp vim vtail_cascn VSS sky130_fd_pr__nfet_01v8_lvt ad=0p pd=0u as=0p ps=0u w=3e+06u l=4.8e+06u