.subckt analog_top_level_lvs vintp vintm vfiltp vfiltm vlowA vrefA q7A q6A q5A q4A q3A q2A q1A q0A
+ adc_clk sample vlowB vrefB q7B q6B q5B q4B q3B q2B q1B q0B adc_compA adc_compB vcp vcp_sampled
+ vpeak_sampled vpeak vse vcomp vhpf VDD VSS vincm vocm vocm_filt gain_ctrl_0 gain_ctrl_1 vbiasp vbiasn
+ peak_detector_rst vampm vampp adc_vcaparrayB adc_vcaparrayA rst_n
*.opin vintp
*.opin vintm
*.opin vfiltp
*.opin vfiltm
*.ipin vlowA
*.ipin vrefA
*.ipin q7A
*.ipin q6A
*.ipin q5A
*.ipin q4A
*.ipin q3A
*.ipin q2A
*.ipin q1A
*.ipin q0A
*.ipin adc_clk
*.ipin sample
*.ipin vlowB
*.ipin vrefB
*.ipin q7B
*.ipin q6B
*.ipin q5B
*.ipin q4B
*.ipin q3B
*.ipin q2B
*.ipin q1B
*.ipin q0B
*.opin adc_compA
*.opin adc_compB
*.opin vcp
*.opin vcp_sampled
*.opin vpeak_sampled
*.opin vpeak
*.opin vse
*.opin vcomp
*.ipin vhpf
*.ipin VDD
*.ipin VSS
*.ipin vincm
*.ipin vocm
*.ipin vocm_filt
*.ipin gain_ctrl_0
*.ipin gain_ctrl_1
*.ipin vbiasp
*.ipin vbiasn
*.opin peak_detector_rst
*.opin vampm
*.opin vampp
*.opin adc_vcaparrayB
*.opin adc_vcaparrayA
*.ipin rst_n
x1 VDD VSS vincm vhpf gain_ctrl_0 gain_ctrl_1 vocm net1 net2 rst_n vampm vampp input_amplifier_lvs
x2 VDD VSS vampp vampm net6 net5 net4 net3 vocm_filt vfiltp vfiltm vintp vintm
+ biquad_gm_c_filter_lvs
x3 vocm_filt VDD VSS vfiltp vse net7 vfiltm rst_n diff_to_se_converter_lvs
x5 VDD VSS net16 net15 vbiasp vbiasn net9 net17 net7 net13 net14 net8 net6 net5 net11 net12 net3
+ net4 net10 net2 net1 bias_current_distribution_lvs
x6 vfiltp vfiltm vcomp net8 VDD VSS comparator_lvs
x4 VDD VSS vse net9 net18 vpeak net10 peak_detector_rst peak_detector_lvs
x7 VDD sample VSS net19 vcp vcp_sampled net12 sample_and_hold_lvs
x8 VDD sample VSS net20 vpeak vpeak_sampled net13 sample_and_hold_lvs
x9 vcp VDD VSS vcomp net11 low_freq_pll_block_lvs
x10 adc_vcaparrayA VDD sample net14 net21 VSS adc_compA adc_clk net15 vcp_sampled q0A q1A q2A q7A
+ q3A q4A q5A q6A vrefA vlowA dac_8bit_lvs
x11 adc_vcaparrayB VDD sample net17 net22 VSS adc_compB adc_clk net16 vpeak_sampled q0B q1B q2B q7B
+ q3B q4B q5B q6B vrefB vlowB dac_8bit_lvs
x12 VDD VSS sample peak_detector_rst adc_clk pulse_generator_lvs
.ends

* expanding   symbol:
*+  /home/users/nhpoole/ee272b/ee272b_mixed_signal_mmwave_accelerator/designs/input_amplifier_lvs.sym # of pins=12
* sym_path:
*+ /home/users/nhpoole/ee272b/ee272b_mixed_signal_mmwave_accelerator/designs/input_amplifier_lvs.sym
* sch_path:
*+ /home/users/nhpoole/ee272b/ee272b_mixed_signal_mmwave_accelerator/designs/input_amplifier_lvs.sch
.subckt input_amplifier_lvs  VDD VSS vincm vhpf gain_ctrl_0 gain_ctrl_1 vocm ibiasn1 ibiasn2 rst_n
+ vom vop
*.ipin VDD
*.ipin VSS
*.ipin vincm
*.ipin vhpf
*.ipin gain_ctrl_0
*.ipin gain_ctrl_1
*.ipin vocm
*.ipin ibiasn1
*.opin vom
*.opin vop
*.ipin ibiasn2
*.ipin rst_n
x5 VDD gain_ctrl_1 VSS vom venm2 txgate_lvs
x6 VDD gain_ctrl_1 VSS vop venp2 txgate_lvs
x7 VDD gain_ctrl_0 VSS vip2 venm1 txgate_lvs
x8 VDD gain_ctrl_0 VSS vim2 venp1 txgate_lvs
XC1 vom vip2 sky130_fd_pr__cap_mim_m3_1 W=8 L=8 MF=2 m=2
XC2 vop vim2 sky130_fd_pr__cap_mim_m3_1 W=8 L=8 MF=2 m=2
XC4 venm2 vip2 sky130_fd_pr__cap_mim_m3_1 W=8 L=8 MF=6 m=6
XC6 venp2 vim2 sky130_fd_pr__cap_mim_m3_1 W=8 L=8 MF=6 m=6
XC5 venp1 vop1 sky130_fd_pr__cap_mim_m3_1 W=8 L=8 MF=4 m=4
XC7 vim2 vop1 sky130_fd_pr__cap_mim_m3_1 W=8 L=8 MF=4 m=4
XC3 vip2 vom1 sky130_fd_pr__cap_mim_m3_1 W=8 L=8 MF=4 m=4
XC8 venm1 vom1 sky130_fd_pr__cap_mim_m3_1 W=8 L=8 MF=4 m=4
XC9 vom1 vip1 sky130_fd_pr__cap_mim_m3_1 W=8 L=8 MF=4 m=4
XC10 vip1 vhpf sky130_fd_pr__cap_mim_m3_1 W=8 L=8 MF=4 m=4
XC11 vim1 vincm sky130_fd_pr__cap_mim_m3_1 W=8 L=8 MF=4 m=4
XC12 vop1 vim1 sky130_fd_pr__cap_mim_m3_1 W=8 L=8 MF=4 m=4
XC13 VSS VSS sky130_fd_pr__cap_mim_m3_1 W=12 L=2 MF=20 m=20
XC14 VSS VSS sky130_fd_pr__cap_mim_m3_1 W=8 L=2 MF=22 m=22
XC15 VSS VSS sky130_fd_pr__cap_mim_m3_1 W=2 L=8 MF=24 m=24
x1 vom1 vop1 vip1 vim1 vocm VDD VSS ibiasn1 diff_fold_casc_ota_lvs
x2 vom vop vip2 vim2 vocm VDD VSS ibiasn2 diff_fold_casc_ota_lvs
x3 VDD rst VSS vincm vim1 txgate_lvs
x4 rst_n rst VDD VSS inv1
x9 VDD rst VSS vincm vip1 txgate_lvs
x10 VDD rst VSS vop1 vim2 txgate_lvs
x11 VDD rst VSS vom1 vip2 txgate_lvs
.ends


* expanding   symbol:
*+  /home/users/nhpoole/ee272b/ee272b_mixed_signal_mmwave_accelerator/designs/biquad_gm_c_filter_lvs.sym # of pins=13
* sym_path:
*+ /home/users/nhpoole/ee272b/ee272b_mixed_signal_mmwave_accelerator/designs/biquad_gm_c_filter_lvs.sym
* sch_path:
*+ /home/users/nhpoole/ee272b/ee272b_mixed_signal_mmwave_accelerator/designs/biquad_gm_c_filter_lvs.sch
.subckt biquad_gm_c_filter_lvs  VDD VSS vip vim ibiasn1 ibiasn2 ibiasn3 ibiasn4 vocm vfiltp vfiltm
+ vintp vintm
*.ipin VDD
*.ipin VSS
*.ipin vip
*.ipin vim
*.ipin ibiasn1
*.ipin vocm
*.opin vfiltp
*.opin vfiltm
*.opin vintp
*.opin vintm
*.ipin ibiasn2
*.ipin ibiasn3
*.ipin ibiasn4
x1 vintp vintm vip vim vocm VDD VSS ibiasn1 gm_c_stage_lvs Itail=0.01u Wp=0.5 Wn_diff=8 Wpcm=0.5
+ Wncm=8 Wn_bias=1 Lp=1 Ln_diff=1 Lpcm=1 Lncm=1 Ln_bias=4
x4 vintm vintp vfiltp vfiltm vocm VDD VSS ibiasn4 gm_c_stage_lvs Itail=0.01u Wp=0.5 Wn_diff=8
+ Wpcm=0.5 Wncm=8 Wn_bias=1 Lp=1 Ln_diff=1 Lpcm=1 Lncm=1 Ln_bias=4
x2 vfiltm vfiltp vintm vintp vocm VDD VSS ibiasn3 gm_c_stage_lvs Itail=0.01u Wp=0.5 Wn_diff=8
+ Wpcm=0.5 Wncm=8 Wn_bias=1 Lp=1 Ln_diff=1 Lpcm=1 Lncm=1 Ln_bias=4
x3 vintm vintp vintm vintp vocm VDD VSS ibiasn2 gm_c_stage_lvs Itail=0.01u Wp=0.5 Wn_diff=8 Wpcm=0.5
+ Wncm=8 Wn_bias=1 Lp=1 Ln_diff=1 Lpcm=1 Lncm=1 Ln_bias=4
.ends


* expanding   symbol:
*+  /home/users/nhpoole/ee272b/ee272b_mixed_signal_mmwave_accelerator/designs/diff_to_se_converter_lvs.sym # of pins=8
* sym_path:
*+ /home/users/nhpoole/ee272b/ee272b_mixed_signal_mmwave_accelerator/designs/diff_to_se_converter_lvs.sym
* sch_path:
*+ /home/users/nhpoole/ee272b/ee272b_mixed_signal_mmwave_accelerator/designs/diff_to_se_converter_lvs.sch
.subckt diff_to_se_converter_lvs  vocm VDD VSS vdiffp vse ibiasn vdiffm rst_n
*.ipin vdiffp
*.ipin vdiffm
*.ipin VDD
*.ipin VSS
*.ipin vocm
*.opin vse
*.ipin ibiasn
*.ipin rst_n
x1 VSS vse vip vim ibiasn VDD se_fold_casc_wide_swing_ota_lvs
XC13 VSS VSS sky130_fd_pr__cap_mim_m3_1 W=12 L=2 MF=8 m=8
XC14 VSS VSS sky130_fd_pr__cap_mim_m3_1 W=8 L=2 MF=8 m=8
XC15 VSS VSS sky130_fd_pr__cap_mim_m3_1 W=2 L=8 MF=8 m=8
XC1 vse vim sky130_fd_pr__cap_mim_m3_1 W=8 L=8 MF=4 m=4
XC2 vim vdiffm sky130_fd_pr__cap_mim_m3_1 W=8 L=8 MF=4 m=4
XC3 vip vdiffp sky130_fd_pr__cap_mim_m3_1 W=8 L=8 MF=4 m=4
XC4 vip vocm sky130_fd_pr__cap_mim_m3_1 W=8 L=8 MF=4 m=4
x2 VDD rst VSS vim vdiffm txgate_lvs
x3 rst_n rst VDD VSS inv1
x4 VDD rst VSS vip vdiffp txgate_lvs
.ends


* expanding   symbol:
*+  /home/users/nhpoole/ee272b/ee272b_mixed_signal_mmwave_accelerator/designs/bias_current_distribution_lvs.sym # of pins=21
* sym_path:
*+ /home/users/nhpoole/ee272b/ee272b_mixed_signal_mmwave_accelerator/designs/bias_current_distribution_lvs.sym
* sch_path:
*+ /home/users/nhpoole/ee272b/ee272b_mixed_signal_mmwave_accelerator/designs/bias_current_distribution_lvs.sch
.subckt bias_current_distribution_lvs  VDD VSS dac_8bit_ibiasp_B dac_8bit_ibiasp_A vbiasp vbiasn
+ peak_detector_ibiasn1 dac_8bit_ibiasn_B diff_to_se_converter_ibiasn sample_and_hold_ibiasn_B dac_8bit_ibiasn_A
+ comparator_ibiasn biquad_gm_c_filter_ibiasn1 biquad_gm_c_filter_ibiasn2 low_freq_pll_ibiasn sample_and_hold_ibiasn_A
+ biquad_gm_c_filter_ibiasn4 biquad_gm_c_filter_ibiasn3 peak_detector_ibiasn2 input_amplifier_ibiasn2 input_amplifier_ibiasn1
*.ipin VDD
*.ipin VSS
*.ipin vbiasp
*.opin input_amplifier_ibiasn1
*.opin input_amplifier_ibiasn2
*.opin diff_to_se_converter_ibiasn
*.opin peak_detector_ibiasn1
*.opin peak_detector_ibiasn2
*.opin sample_and_hold_ibiasn_A
*.opin dac_8bit_ibiasn_A
*.opin sample_and_hold_ibiasn_B
*.opin dac_8bit_ibiasn_B
*.opin comparator_ibiasn
*.opin biquad_gm_c_filter_ibiasn1
*.opin biquad_gm_c_filter_ibiasn2
*.opin biquad_gm_c_filter_ibiasn3
*.opin biquad_gm_c_filter_ibiasn4
*.opin low_freq_pll_ibiasn
*.ipin vbiasn
*.opin dac_8bit_ibiasp_A
*.opin dac_8bit_ibiasp_B
XM1 input_amplifier_ibiasn1 vbiasp VDD VDD sky130_fd_pr__pfet_01v8 L=4 W=6 nf=1 ad='int((nf+1)/2) * W/nf * 0.29'
+ as='int((nf+2)/2) * W/nf * 0.29' pd='2*int((nf+1)/2) * (W/nf + 0.29)' ps='2*int((nf+2)/2) * (W/nf + 0.29)'
+ nrd='0.29 / W' nrs='0.29 / W' sa=0 sb=0 sd=0 mult=4 m=4 
XM2 input_amplifier_ibiasn2 vbiasp VDD VDD sky130_fd_pr__pfet_01v8 L=4 W=6 nf=1 ad='int((nf+1)/2) * W/nf * 0.29'
+ as='int((nf+2)/2) * W/nf * 0.29' pd='2*int((nf+1)/2) * (W/nf + 0.29)' ps='2*int((nf+2)/2) * (W/nf + 0.29)'
+ nrd='0.29 / W' nrs='0.29 / W' sa=0 sb=0 sd=0 mult=4 m=4 
XM3 diff_to_se_converter_ibiasn vbiasp VDD VDD sky130_fd_pr__pfet_01v8 L=4 W=6 nf=1 ad='int((nf+1)/2) * W/nf * 0.29'
+ as='int((nf+2)/2) * W/nf * 0.29' pd='2*int((nf+1)/2) * (W/nf + 0.29)' ps='2*int((nf+2)/2) * (W/nf + 0.29)'
+ nrd='0.29 / W' nrs='0.29 / W' sa=0 sb=0 sd=0 mult=4 m=4 
XM4 peak_detector_ibiasn1 vbiasp VDD VDD sky130_fd_pr__pfet_01v8 L=4 W=6 nf=1 ad='int((nf+1)/2) * W/nf * 0.29'
+ as='int((nf+2)/2) * W/nf * 0.29' pd='2*int((nf+1)/2) * (W/nf + 0.29)' ps='2*int((nf+2)/2) * (W/nf + 0.29)'
+ nrd='0.29 / W' nrs='0.29 / W' sa=0 sb=0 sd=0 mult=4 m=4 
XM5 peak_detector_ibiasn2 vbiasp VDD VDD sky130_fd_pr__pfet_01v8 L=4 W=6 nf=1 ad='int((nf+1)/2) * W/nf * 0.29'
+ as='int((nf+2)/2) * W/nf * 0.29' pd='2*int((nf+1)/2) * (W/nf + 0.29)' ps='2*int((nf+2)/2) * (W/nf + 0.29)'
+ nrd='0.29 / W' nrs='0.29 / W' sa=0 sb=0 sd=0 mult=4 m=4 
XM6 sample_and_hold_ibiasn_A vbiasp VDD VDD sky130_fd_pr__pfet_01v8 L=4 W=6 nf=1 ad='int((nf+1)/2) * W/nf * 0.29'
+ as='int((nf+2)/2) * W/nf * 0.29' pd='2*int((nf+1)/2) * (W/nf + 0.29)' ps='2*int((nf+2)/2) * (W/nf + 0.29)'
+ nrd='0.29 / W' nrs='0.29 / W' sa=0 sb=0 sd=0 mult=4 m=4 
XM7 dac_8bit_ibiasn_A vbiasp VDD VDD sky130_fd_pr__pfet_01v8 L=4 W=6 nf=1 ad='int((nf+1)/2) * W/nf * 0.29'
+ as='int((nf+2)/2) * W/nf * 0.29' pd='2*int((nf+1)/2) * (W/nf + 0.29)' ps='2*int((nf+2)/2) * (W/nf + 0.29)'
+ nrd='0.29 / W' nrs='0.29 / W' sa=0 sb=0 sd=0 mult=4 m=4 
XM8 sample_and_hold_ibiasn_B vbiasp VDD VDD sky130_fd_pr__pfet_01v8 L=4 W=6 nf=1 ad='int((nf+1)/2) * W/nf * 0.29'
+ as='int((nf+2)/2) * W/nf * 0.29' pd='2*int((nf+1)/2) * (W/nf + 0.29)' ps='2*int((nf+2)/2) * (W/nf + 0.29)'
+ nrd='0.29 / W' nrs='0.29 / W' sa=0 sb=0 sd=0 mult=4 m=4 
XM9 dac_8bit_ibiasn_B vbiasp VDD VDD sky130_fd_pr__pfet_01v8 L=4 W=6 nf=1 ad='int((nf+1)/2) * W/nf * 0.29'
+ as='int((nf+2)/2) * W/nf * 0.29' pd='2*int((nf+1)/2) * (W/nf + 0.29)' ps='2*int((nf+2)/2) * (W/nf + 0.29)'
+ nrd='0.29 / W' nrs='0.29 / W' sa=0 sb=0 sd=0 mult=4 m=4 
XM10 comparator_ibiasn vbiasp VDD VDD sky130_fd_pr__pfet_01v8 L=4 W=6 nf=1 ad='int((nf+1)/2) * W/nf * 0.29'
+ as='int((nf+2)/2) * W/nf * 0.29' pd='2*int((nf+1)/2) * (W/nf + 0.29)' ps='2*int((nf+2)/2) * (W/nf + 0.29)'
+ nrd='0.29 / W' nrs='0.29 / W' sa=0 sb=0 sd=0 mult=4 m=4 
XM11 biquad_gm_c_filter_ibiasn1 vbiasp VDD VDD sky130_fd_pr__pfet_01v8 L=4 W=6 nf=1 ad='int((nf+1)/2) * W/nf * 0.29'
+ as='int((nf+2)/2) * W/nf * 0.29' pd='2*int((nf+1)/2) * (W/nf + 0.29)' ps='2*int((nf+2)/2) * (W/nf + 0.29)'
+ nrd='0.29 / W' nrs='0.29 / W' sa=0 sb=0 sd=0 mult=4 m=4 
XM12 biquad_gm_c_filter_ibiasn2 vbiasp VDD VDD sky130_fd_pr__pfet_01v8 L=4 W=6 nf=1 ad='int((nf+1)/2) * W/nf * 0.29'
+ as='int((nf+2)/2) * W/nf * 0.29' pd='2*int((nf+1)/2) * (W/nf + 0.29)' ps='2*int((nf+2)/2) * (W/nf + 0.29)'
+ nrd='0.29 / W' nrs='0.29 / W' sa=0 sb=0 sd=0 mult=4 m=4 
XM13 biquad_gm_c_filter_ibiasn3 vbiasp VDD VDD sky130_fd_pr__pfet_01v8 L=4 W=6 nf=1 ad='int((nf+1)/2) * W/nf * 0.29'
+ as='int((nf+2)/2) * W/nf * 0.29' pd='2*int((nf+1)/2) * (W/nf + 0.29)' ps='2*int((nf+2)/2) * (W/nf + 0.29)'
+ nrd='0.29 / W' nrs='0.29 / W' sa=0 sb=0 sd=0 mult=4 m=4 
XM14 biquad_gm_c_filter_ibiasn4 vbiasp VDD VDD sky130_fd_pr__pfet_01v8 L=4 W=6 nf=1 ad='int((nf+1)/2) * W/nf * 0.29'
+ as='int((nf+2)/2) * W/nf * 0.29' pd='2*int((nf+1)/2) * (W/nf + 0.29)' ps='2*int((nf+2)/2) * (W/nf + 0.29)'
+ nrd='0.29 / W' nrs='0.29 / W' sa=0 sb=0 sd=0 mult=4 m=4 
XM15 low_freq_pll_ibiasn vbiasp VDD VDD sky130_fd_pr__pfet_01v8 L=4 W=6 nf=1 ad='int((nf+1)/2) * W/nf * 0.29'
+ as='int((nf+2)/2) * W/nf * 0.29' pd='2*int((nf+1)/2) * (W/nf + 0.29)' ps='2*int((nf+2)/2) * (W/nf + 0.29)'
+ nrd='0.29 / W' nrs='0.29 / W' sa=0 sb=0 sd=0 mult=4 m=4 
XM16 dac_8bit_ibiasp_A vbiasn VSS VSS sky130_fd_pr__nfet_01v8 L=2 W=2 nf=1 ad='int((nf+1)/2) * W/nf * 0.29'
+ as='int((nf+2)/2) * W/nf * 0.29' pd='2*int((nf+1)/2) * (W/nf + 0.29)' ps='2*int((nf+2)/2) * (W/nf + 0.29)'
+ nrd='0.29 / W' nrs='0.29 / W' sa=0 sb=0 sd=0 mult=4 m=4 
XM17 dac_8bit_ibiasp_B vbiasn VSS VSS sky130_fd_pr__nfet_01v8 L=2 W=2 nf=1 ad='int((nf+1)/2) * W/nf * 0.29'
+ as='int((nf+2)/2) * W/nf * 0.29' pd='2*int((nf+1)/2) * (W/nf + 0.29)' ps='2*int((nf+2)/2) * (W/nf + 0.29)'
+ nrd='0.29 / W' nrs='0.29 / W' sa=0 sb=0 sd=0 mult=4 m=4 
XM18 dac_8bit_ibiasp_A VSS VSS VSS sky130_fd_pr__nfet_01v8 L=2 W=2 nf=1 ad='int((nf+1)/2) * W/nf * 0.29'
+ as='int((nf+2)/2) * W/nf * 0.29' pd='2*int((nf+1)/2) * (W/nf + 0.29)' ps='2*int((nf+2)/2) * (W/nf + 0.29)'
+ nrd='0.29 / W' nrs='0.29 / W' sa=0 sb=0 sd=0 mult=2 m=2 
XM19 dac_8bit_ibiasp_B VSS VSS VSS sky130_fd_pr__nfet_01v8 L=2 W=2 nf=1 ad='int((nf+1)/2) * W/nf * 0.29'
+ as='int((nf+2)/2) * W/nf * 0.29' pd='2*int((nf+1)/2) * (W/nf + 0.29)' ps='2*int((nf+2)/2) * (W/nf + 0.29)'
+ nrd='0.29 / W' nrs='0.29 / W' sa=0 sb=0 sd=0 mult=2 m=2 
XM20 VDD VDD VDD VDD sky130_fd_pr__pfet_01v8 L=4 W=6 nf=1 ad='int((nf+1)/2) * W/nf * 0.29' as='int((nf+2)/2) * W/nf * 0.29'
+ pd='2*int((nf+1)/2) * (W/nf + 0.29)' ps='2*int((nf+2)/2) * (W/nf + 0.29)' nrd='0.29 / W' nrs='0.29 / W'
+ sa=0 sb=0 sd=0 mult=10 m=10 
.ends


* expanding   symbol:
*+  /home/users/nhpoole/ee272b/ee272b_mixed_signal_mmwave_accelerator/designs/comparator_lvs.sym # of pins=6
* sym_path:
*+ /home/users/nhpoole/ee272b/ee272b_mixed_signal_mmwave_accelerator/designs/comparator_lvs.sym
* sch_path:
*+ /home/users/nhpoole/ee272b/ee272b_mixed_signal_mmwave_accelerator/designs/comparator_lvs.sch
.subckt comparator_lvs  vip vim vo ibiasn VDD VSS
*.ipin vip
*.ipin vim
*.opin vo
*.ipin ibiasn
*.ipin VDD
*.ipin VSS
XM6 vcompp vcompp VDD VDD sky130_fd_pr__pfet_01v8 L=1 W=1 nf=1 ad='int((nf+1)/2) * W/nf * 0.29' as='int((nf+2)/2) * W/nf * 0.29'
+ pd='2*int((nf+1)/2) * (W/nf + 0.29)' ps='2*int((nf+2)/2) * (W/nf + 0.29)' nrd='0.29 / W' nrs='0.29 / W'
+ sa=0 sb=0 sd=0 mult=4 m=4 
XM3 vcompm vcompm VDD VDD sky130_fd_pr__pfet_01v8 L=1 W=1 nf=1 ad='int((nf+1)/2) * W/nf * 0.29' as='int((nf+2)/2) * W/nf * 0.29'
+ pd='2*int((nf+1)/2) * (W/nf + 0.29)' ps='2*int((nf+2)/2) * (W/nf + 0.29)' nrd='0.29 / W' nrs='0.29 / W'
+ sa=0 sb=0 sd=0 mult=4 m=4 
XM2 vtail ibiasn VSS VSS sky130_fd_pr__nfet_01v8 L=4 W=1 nf=1 ad='int((nf+1)/2) * W/nf * 0.29' as='int((nf+2)/2) * W/nf * 0.29'
+ pd='2*int((nf+1)/2) * (W/nf + 0.29)' ps='2*int((nf+2)/2) * (W/nf + 0.29)' nrd='0.29 / W' nrs='0.29 / W'
+ sa=0 sb=0 sd=0 mult=4 m=4 
XM14 ibiasn ibiasn VSS VSS sky130_fd_pr__nfet_01v8 L=4 W=1 nf=1 ad='int((nf+1)/2) * W/nf * 0.29' as='int((nf+2)/2) * W/nf * 0.29'
+ pd='2*int((nf+1)/2) * (W/nf + 0.29)' ps='2*int((nf+2)/2) * (W/nf + 0.29)' nrd='0.29 / W' nrs='0.29 / W'
+ sa=0 sb=0 sd=0 mult=4 m=4 
XM4 vcompm vip vtail VSS sky130_fd_pr__nfet_01v8_lvt L=1 W=1 nf=1 ad='int((nf+1)/2) * W/nf * 0.29' as='int((nf+2)/2) * W/nf * 0.29'
+ pd='2*int((nf+1)/2) * (W/nf + 0.29)' ps='2*int((nf+2)/2) * (W/nf + 0.29)' nrd='0.29 / W' nrs='0.29 / W'
+ sa=0 sb=0 sd=0 mult=4 m=4 
XM1 vcompp vim vtail VSS sky130_fd_pr__nfet_01v8_lvt L=1 W=1 nf=1 ad='int((nf+1)/2) * W/nf * 0.29' as='int((nf+2)/2) * W/nf * 0.29'
+ pd='2*int((nf+1)/2) * (W/nf + 0.29)' ps='2*int((nf+2)/2) * (W/nf + 0.29)' nrd='0.29 / W' nrs='0.29 / W'
+ sa=0 sb=0 sd=0 mult=4 m=4 
XM5 vcompp vcompm VDD VDD sky130_fd_pr__pfet_01v8 L=1 W=1 nf=1 ad='int((nf+1)/2) * W/nf * 0.29' as='int((nf+2)/2) * W/nf * 0.29'
+ pd='2*int((nf+1)/2) * (W/nf + 0.29)' ps='2*int((nf+2)/2) * (W/nf + 0.29)' nrd='0.29 / W' nrs='0.29 / W'
+ sa=0 sb=0 sd=0 mult=4 m=4 
XM7 vcompm vcompp VDD VDD sky130_fd_pr__pfet_01v8 L=1 W=1 nf=1 ad='int((nf+1)/2) * W/nf * 0.29' as='int((nf+2)/2) * W/nf * 0.29'
+ pd='2*int((nf+1)/2) * (W/nf + 0.29)' ps='2*int((nf+2)/2) * (W/nf + 0.29)' nrd='0.29 / W' nrs='0.29 / W'
+ sa=0 sb=0 sd=0 mult=4 m=4 
XM8 vo1 vcompp VDD VDD sky130_fd_pr__pfet_01v8 L=1 W=1 nf=1 ad='int((nf+1)/2) * W/nf * 0.29' as='int((nf+2)/2) * W/nf * 0.29'
+ pd='2*int((nf+1)/2) * (W/nf + 0.29)' ps='2*int((nf+2)/2) * (W/nf + 0.29)' nrd='0.29 / W' nrs='0.29 / W'
+ sa=0 sb=0 sd=0 mult=4 m=4 
XM9 vo1 vmirror VSS VSS sky130_fd_pr__nfet_01v8 L=1 W=1 nf=1 ad='int((nf+1)/2) * W/nf * 0.29' as='int((nf+2)/2) * W/nf * 0.29'
+ pd='2*int((nf+1)/2) * (W/nf + 0.29)' ps='2*int((nf+2)/2) * (W/nf + 0.29)' nrd='0.29 / W' nrs='0.29 / W'
+ sa=0 sb=0 sd=0 mult=2 m=2 
XM10 vmirror vcompm VDD VDD sky130_fd_pr__pfet_01v8 L=1 W=1 nf=1 ad='int((nf+1)/2) * W/nf * 0.29' as='int((nf+2)/2) * W/nf * 0.29'
+ pd='2*int((nf+1)/2) * (W/nf + 0.29)' ps='2*int((nf+2)/2) * (W/nf + 0.29)' nrd='0.29 / W' nrs='0.29 / W'
+ sa=0 sb=0 sd=0 mult=4 m=4 
XM11 vmirror vmirror VSS VSS sky130_fd_pr__nfet_01v8 L=1 W=1 nf=1 ad='int((nf+1)/2) * W/nf * 0.29' as='int((nf+2)/2) * W/nf * 0.29'
+ pd='2*int((nf+1)/2) * (W/nf + 0.29)' ps='2*int((nf+2)/2) * (W/nf + 0.29)' nrd='0.29 / W' nrs='0.29 / W'
+ sa=0 sb=0 sd=0 mult=2 m=2 
XM13 vo vo1 VSS VSS sky130_fd_pr__nfet_01v8 L=1 W=2 nf=1 ad='int((nf+1)/2) * W/nf * 0.29' as='int((nf+2)/2) * W/nf * 0.29'
+ pd='2*int((nf+1)/2) * (W/nf + 0.29)' ps='2*int((nf+2)/2) * (W/nf + 0.29)' nrd='0.29 / W' nrs='0.29 / W'
+ sa=0 sb=0 sd=0 mult=1 m=1 
XM15 vo vo1 VDD VDD sky130_fd_pr__pfet_01v8_hvt L=1 W=4 nf=1 ad='int((nf+1)/2) * W/nf * 0.29' as='int((nf+2)/2) * W/nf * 0.29'
+ pd='2*int((nf+1)/2) * (W/nf + 0.29)' ps='2*int((nf+2)/2) * (W/nf + 0.29)' nrd='0.29 / W' nrs='0.29 / W'
+ sa=0 sb=0 sd=0 mult=1 m=1 
XM12 vtail vtail vtail VSS sky130_fd_pr__nfet_01v8 L=4 W=1 nf=1 ad='int((nf+1)/2) * W/nf * 0.29' as='int((nf+2)/2) * W/nf * 0.29'
+ pd='2*int((nf+1)/2) * (W/nf + 0.29)' ps='2*int((nf+2)/2) * (W/nf + 0.29)' nrd='0.29 / W' nrs='0.29 / W'
+ sa=0 sb=0 sd=0 mult=2 m=2 
XM16 ibiasn ibiasn ibiasn VSS sky130_fd_pr__nfet_01v8 L=4 W=1 nf=1 ad='int((nf+1)/2) * W/nf * 0.29' as='int((nf+2)/2) * W/nf * 0.29'
+ pd='2*int((nf+1)/2) * (W/nf + 0.29)' ps='2*int((nf+2)/2) * (W/nf + 0.29)' nrd='0.29 / W' nrs='0.29 / W'
+ sa=0 sb=0 sd=0 mult=2 m=2 
XM18 vo1 vo1 vo1 VSS sky130_fd_pr__nfet_01v8 L=1 W=1 nf=1 ad='int((nf+1)/2) * W/nf * 0.29' as='int((nf+2)/2) * W/nf * 0.29'
+ pd='2*int((nf+1)/2) * (W/nf + 0.29)' ps='2*int((nf+2)/2) * (W/nf + 0.29)' nrd='0.29 / W' nrs='0.29 / W'
+ sa=0 sb=0 sd=0 mult=2 m=2 
XM19 VDD VDD VDD VDD sky130_fd_pr__pfet_01v8 L=1 W=1 nf=1 ad='int((nf+1)/2) * W/nf * 0.29' as='int((nf+2)/2) * W/nf * 0.29'
+ pd='2*int((nf+1)/2) * (W/nf + 0.29)' ps='2*int((nf+2)/2) * (W/nf + 0.29)' nrd='0.29 / W' nrs='0.29 / W'
+ sa=0 sb=0 sd=0 mult=4 m=4 
XM20 vo1 vo1 vo1 VDD sky130_fd_pr__pfet_01v8 L=1 W=1 nf=1 ad='int((nf+1)/2) * W/nf * 0.29' as='int((nf+2)/2) * W/nf * 0.29'
+ pd='2*int((nf+1)/2) * (W/nf + 0.29)' ps='2*int((nf+2)/2) * (W/nf + 0.29)' nrd='0.29 / W' nrs='0.29 / W'
+ sa=0 sb=0 sd=0 mult=2 m=2 
XM21 vmirror vmirror vmirror VDD sky130_fd_pr__pfet_01v8 L=1 W=1 nf=1 ad='int((nf+1)/2) * W/nf * 0.29'
+ as='int((nf+2)/2) * W/nf * 0.29' pd='2*int((nf+1)/2) * (W/nf + 0.29)' ps='2*int((nf+2)/2) * (W/nf + 0.29)'
+ nrd='0.29 / W' nrs='0.29 / W' sa=0 sb=0 sd=0 mult=2 m=2 
XM17 vcompm vcompm vcompm VSS sky130_fd_pr__nfet_01v8_lvt L=1 W=1 nf=1 ad='int((nf+1)/2) * W/nf * 0.29'
+ as='int((nf+2)/2) * W/nf * 0.29' pd='2*int((nf+1)/2) * (W/nf + 0.29)' ps='2*int((nf+2)/2) * (W/nf + 0.29)'
+ nrd='0.29 / W' nrs='0.29 / W' sa=0 sb=0 sd=0 mult=2 m=2 
.ends


* expanding   symbol:
*+  /home/users/nhpoole/ee272b/ee272b_mixed_signal_mmwave_accelerator/designs/peak_detector_lvs.sym # of pins=8
* sym_path:
*+ /home/users/nhpoole/ee272b/ee272b_mixed_signal_mmwave_accelerator/designs/peak_detector_lvs.sym
* sch_path:
*+ /home/users/nhpoole/ee272b/ee272b_mixed_signal_mmwave_accelerator/designs/peak_detector_lvs.sch
.subckt peak_detector_lvs  VDD VSS vin ibiasn1 vpeakh vpeak_out ibiasn2 rst
*.ipin vin
*.ipin ibiasn1
*.opin vpeak_out
*.ipin VDD
*.ipin VSS
*.opin vpeakh
*.ipin rst
*.ipin ibiasn2
XM3 vpeakh verr VDD VDD sky130_fd_pr__pfet_01v8 L=1 W=1 nf=1 ad='int((nf+1)/2) * W/nf * 0.29' as='int((nf+2)/2) * W/nf * 0.29'
+ pd='2*int((nf+1)/2) * (W/nf + 0.29)' ps='2*int((nf+2)/2) * (W/nf + 0.29)' nrd='0.29 / W' nrs='0.29 / W'
+ sa=0 sb=0 sd=0 mult=2 m=2 
XM4 verr verr VDD VDD sky130_fd_pr__pfet_01v8 L=1 W=1 nf=1 ad='int((nf+1)/2) * W/nf * 0.29' as='int((nf+2)/2) * W/nf * 0.29'
+ pd='2*int((nf+1)/2) * (W/nf + 0.29)' ps='2*int((nf+2)/2) * (W/nf + 0.29)' nrd='0.29 / W' nrs='0.29 / W'
+ sa=0 sb=0 sd=0 mult=2 m=2 
XM2 vpeakh rst VSS VSS sky130_fd_pr__nfet_01v8 L=0.15 W=0.65 nf=1 ad='int((nf+1)/2) * W/nf * 0.29' as='int((nf+2)/2) * W/nf * 0.29'
+ pd='2*int((nf+1)/2) * (W/nf + 0.29)' ps='2*int((nf+2)/2) * (W/nf + 0.29)' nrd='0.29 / W' nrs='0.29 / W'
+ sa=0 sb=0 sd=0 mult=1 m=1 
x2 VSS vpeak_out vpeakh vpeak_out ibiasn2 VDD se_fold_casc_wide_swing_ota_lvs
x1 VSS verr vpeak_out vin ibiasn1 VDD se_fold_casc_wide_swing_ota_lvs
XM1 vpeakh VDD VDD VDD sky130_fd_pr__pfet_01v8 L=1 W=1 nf=1 ad='int((nf+1)/2) * W/nf * 0.29' as='int((nf+2)/2) * W/nf * 0.29'
+ pd='2*int((nf+1)/2) * (W/nf + 0.29)' ps='2*int((nf+2)/2) * (W/nf + 0.29)' nrd='0.29 / W' nrs='0.29 / W'
+ sa=0 sb=0 sd=0 mult=2 m=2 
XC3 VSS VSS sky130_fd_pr__cap_mim_m3_1 W=31 L=2 MF=4 m=4
XC4 VSS VSS sky130_fd_pr__cap_mim_m3_1 W=4 L=29 MF=4 m=4
XC5 VSS VSS sky130_fd_pr__cap_mim_m3_2 W=29 L=4 MF=4 m=4
XC6 VSS VSS sky130_fd_pr__cap_mim_m3_2 W=2 L=31 MF=4 m=4
XC1 vpeakh VSS sky130_fd_pr__cap_mim_m3_1 W=26 L=24 MF=4 m=4
XC7 VSS vpeakh sky130_fd_pr__cap_mim_m3_2 W=24 L=26 MF=4 m=4
.ends


* expanding   symbol:
*+  /home/users/nhpoole/ee272b/ee272b_mixed_signal_mmwave_accelerator/designs/sample_and_hold_lvs.sym # of pins=7
* sym_path:
*+ /home/users/nhpoole/ee272b/ee272b_mixed_signal_mmwave_accelerator/designs/sample_and_hold_lvs.sym
* sch_path:
*+ /home/users/nhpoole/ee272b/ee272b_mixed_signal_mmwave_accelerator/designs/sample_and_hold_lvs.sch
.subckt sample_and_hold_lvs  VDD clk VSS vhold vin vout ibiasn
*.ipin vin
*.ipin clk
*.ipin VDD
*.ipin VSS
*.ipin ibiasn
*.opin vout
*.opin vhold
XM1 vhold clk vin VSS sky130_fd_pr__nfet_01v8 L=1 W=2 nf=1 ad='int((nf+1)/2) * W/nf * 0.29' as='int((nf+2)/2) * W/nf * 0.29'
+ pd='2*int((nf+1)/2) * (W/nf + 0.29)' ps='2*int((nf+2)/2) * (W/nf + 0.29)' nrd='0.29 / W' nrs='0.29 / W'
+ sa=0 sb=0 sd=0 mult=8 m=8 
XM2 vholdm clk vout VSS sky130_fd_pr__nfet_01v8 L=1 W=2 nf=1 ad='int((nf+1)/2) * W/nf * 0.29' as='int((nf+2)/2) * W/nf * 0.29'
+ pd='2*int((nf+1)/2) * (W/nf + 0.29)' ps='2*int((nf+2)/2) * (W/nf + 0.29)' nrd='0.29 / W' nrs='0.29 / W'
+ sa=0 sb=0 sd=0 mult=8 m=8 
x1 VSS vout vhold vholdm ibiasn VDD se_fold_casc_wide_swing_ota_lvs
XC1 vhold VSS sky130_fd_pr__cap_mim_m3_1 W=10 L=10 MF=4 m=4
XC2 vholdm vout sky130_fd_pr__cap_mim_m3_1 W=10 L=10 MF=4 m=4
XC3 VSS VSS sky130_fd_pr__cap_mim_m3_1 W=14 L=2 MF=4 m=4
XC4 VSS VSS sky130_fd_pr__cap_mim_m3_1 W=2 L=12 MF=4 m=4
XC5 VSS VSS sky130_fd_pr__cap_mim_m3_1 W=2 L=10 MF=4 m=4
XM3 vhold VSS VSS VSS sky130_fd_pr__nfet_01v8 L=1 W=2 nf=1 ad='int((nf+1)/2) * W/nf * 0.29' as='int((nf+2)/2) * W/nf * 0.29'
+ pd='2*int((nf+1)/2) * (W/nf + 0.29)' ps='2*int((nf+2)/2) * (W/nf + 0.29)' nrd='0.29 / W' nrs='0.29 / W'
+ sa=0 sb=0 sd=0 mult=4 m=4 
XM4 vholdm VSS VSS VSS sky130_fd_pr__nfet_01v8 L=1 W=2 nf=1 ad='int((nf+1)/2) * W/nf * 0.29' as='int((nf+2)/2) * W/nf * 0.29'
+ pd='2*int((nf+1)/2) * (W/nf + 0.29)' ps='2*int((nf+2)/2) * (W/nf + 0.29)' nrd='0.29 / W' nrs='0.29 / W'
+ sa=0 sb=0 sd=0 mult=4 m=4 
XM5 vin VSS VSS VSS sky130_fd_pr__nfet_01v8 L=1 W=2 nf=1 ad='int((nf+1)/2) * W/nf * 0.29' as='int((nf+2)/2) * W/nf * 0.29'
+ pd='2*int((nf+1)/2) * (W/nf + 0.29)' ps='2*int((nf+2)/2) * (W/nf + 0.29)' nrd='0.29 / W' nrs='0.29 / W'
+ sa=0 sb=0 sd=0 mult=2 m=2 
XM6 vout VSS VSS VSS sky130_fd_pr__nfet_01v8 L=1 W=2 nf=1 ad='int((nf+1)/2) * W/nf * 0.29' as='int((nf+2)/2) * W/nf * 0.29'
+ pd='2*int((nf+1)/2) * (W/nf + 0.29)' ps='2*int((nf+2)/2) * (W/nf + 0.29)' nrd='0.29 / W' nrs='0.29 / W'
+ sa=0 sb=0 sd=0 mult=2 m=2 
.ends


* expanding   symbol:
*+  /home/users/nhpoole/ee272b/ee272b_mixed_signal_mmwave_accelerator/designs/low_freq_pll_block_lvs.sym # of pins=5
* sym_path:
*+ /home/users/nhpoole/ee272b/ee272b_mixed_signal_mmwave_accelerator/designs/low_freq_pll_block_lvs.sym
* sch_path:
*+ /home/users/nhpoole/ee272b/ee272b_mixed_signal_mmwave_accelerator/designs/low_freq_pll_block_lvs.sch
.subckt low_freq_pll_block_lvs  vcp VDD VSS vsigin ibiasn
*.ipin VDD
*.ipin VSS
*.ipin vsigin
*.ipin ibiasn
*.opin vcp
x1 VDD VSS net1 net3 vcp cs_ring_osc_lvs
x2 VDD VSS net1 net2 freq_div_lvs
x3 VDD VSS vsigin ibiasn vcp net2 pfd_cp_lpf_lvs
.ends


* expanding   symbol:
*+  /home/users/nhpoole/ee272b/ee272b_mixed_signal_mmwave_accelerator/designs/dac_8bit_lvs.sym # of pins=20
* sym_path:
*+ /home/users/nhpoole/ee272b/ee272b_mixed_signal_mmwave_accelerator/designs/dac_8bit_lvs.sym
* sch_path:
*+ /home/users/nhpoole/ee272b/ee272b_mixed_signal_mmwave_accelerator/designs/dac_8bit_lvs.sch
.subckt dac_8bit_lvs  vcom VDD sample ibiasn comp_outm VSS comp_out adc_clk ibiasp vin q0 q1 q2 q7
+ q3 q4 q5 q6 vref vlow
*.ipin sample
*.ipin VDD
*.ipin VSS
*.ipin vlow
*.ipin vref
*.ipin vin
*.ipin q7
*.ipin q6
*.ipin q5
*.ipin q4
*.ipin q3
*.ipin q2
*.ipin q1
*.ipin q0
*.ipin ibiasn
*.ipin ibiasp
*.ipin adc_clk
*.opin comp_out
*.opin comp_outm
*.opin vcom
XM7 vcom adc_run vlow VDD sky130_fd_pr__pfet_01v8_hvt L=1 W=2 nf=1 ad='int((nf+1)/2) * W/nf * 0.29' as='int((nf+2)/2) * W/nf * 0.29'
+ pd='2*int((nf+1)/2) * (W/nf + 0.29)' ps='2*int((nf+2)/2) * (W/nf + 0.29)' nrd='0.29 / W' nrs='0.29 / W'
+ sa=0 sb=0 sd=0 mult=4 m=4 
XM8 vlow sample vcom VSS sky130_fd_pr__nfet_01v8 L=1 W=1 nf=1 ad='int((nf+1)/2) * W/nf * 0.29' as='int((nf+2)/2) * W/nf * 0.29'
+ pd='2*int((nf+1)/2) * (W/nf + 0.29)' ps='2*int((nf+2)/2) * (W/nf + 0.29)' nrd='0.29 / W' nrs='0.29 / W'
+ sa=0 sb=0 sd=0 mult=4 m=4 
x3 sample adc_run VDD VSS inv1
x2 VSS vcom_buf vcom vcom_buf ibiasn VDD se_fold_casc_wide_swing_ota_lvs
x1 vcom_buf vlow comp_out comp_outm ibiasp VDD VSS adc_clk latched_comparator_folded_lvs
x4 VSS vref net9 vlow VDD VSS amux_2to1_lvs
x5 q0 vref net8 vlow VDD VSS amux_2to1_lvs
x6 q1 vref net7 vlow VDD VSS amux_2to1_lvs
x7 q2 vref net6 vlow VDD VSS amux_2to1_lvs
x8 q3 vref net5 vlow VDD VSS amux_2to1_lvs
x9 q4 vref net4 vlow VDD VSS amux_2to1_lvs
x10 q5 vref net3 vlow VDD VSS amux_2to1_lvs
x11 q6 vref net2 vlow VDD VSS amux_2to1_lvs
x12 q7 vref net1 vlow VDD VSS amux_2to1_lvs
x13 sample vin cdumm net9 VDD VSS amux_2to1_lvs
x14 sample vin c0m net8 VDD VSS amux_2to1_lvs
x15 sample vin c1m net7 VDD VSS amux_2to1_lvs
x16 sample vin c2m net6 VDD VSS amux_2to1_lvs
x17 sample vin c3m net5 VDD VSS amux_2to1_lvs
x18 sample vin c4m net4 VDD VSS amux_2to1_lvs
x19 sample vin c5m net3 VDD VSS amux_2to1_lvs
x20 sample vin c6m net2 VDD VSS amux_2to1_lvs
x21 sample vin c7m net1 VDD VSS amux_2to1_lvs
XC1 vcom cdumm sky130_fd_pr__cap_mim_m3_1 W=7 L=7 MF=1 m=1
XC2 vcom c0m sky130_fd_pr__cap_mim_m3_1 W=7 L=7 MF=1 m=1
XC3 vcom c1m sky130_fd_pr__cap_mim_m3_1 W=7 L=7 MF=2 m=2
XC4 vcom c2m sky130_fd_pr__cap_mim_m3_1 W=7 L=7 MF=4 m=4
XC5 vcom c3m sky130_fd_pr__cap_mim_m3_1 W=7 L=7 MF=8 m=8
XC6 vcom c4m sky130_fd_pr__cap_mim_m3_1 W=7 L=7 MF=16 m=16
XC7 vcom c5m sky130_fd_pr__cap_mim_m3_1 W=7 L=7 MF=32 m=32
XC8 vcom c6m sky130_fd_pr__cap_mim_m3_1 W=7 L=7 MF=64 m=64
XC9 vcom c7m sky130_fd_pr__cap_mim_m3_1 W=7 L=7 MF=128 m=128
XC10 vcom vcom sky130_fd_pr__cap_mim_m3_1 W=7 L=7 MF=68 m=68
XM1 vcom VSS VSS VSS sky130_fd_pr__nfet_01v8 L=1 W=1 nf=1 ad='int((nf+1)/2) * W/nf * 0.29' as='int((nf+2)/2) * W/nf * 0.29'
+ pd='2*int((nf+1)/2) * (W/nf + 0.29)' ps='2*int((nf+2)/2) * (W/nf + 0.29)' nrd='0.29 / W' nrs='0.29 / W'
+ sa=0 sb=0 sd=0 mult=2 m=2 
XM2 VDD VDD vcom VDD sky130_fd_pr__pfet_01v8_hvt L=1 W=2 nf=1 ad='int((nf+1)/2) * W/nf * 0.29' as='int((nf+2)/2) * W/nf * 0.29'
+ pd='2*int((nf+1)/2) * (W/nf + 0.29)' ps='2*int((nf+2)/2) * (W/nf + 0.29)' nrd='0.29 / W' nrs='0.29 / W'
+ sa=0 sb=0 sd=0 mult=2 m=2 
.ends


* expanding   symbol:
*+  /home/users/nhpoole/ee272b/ee272b_mixed_signal_mmwave_accelerator/designs/pulse_generator_lvs.sym # of pins=5
* sym_path:
*+ /home/users/nhpoole/ee272b/ee272b_mixed_signal_mmwave_accelerator/designs/pulse_generator_lvs.sym
* sch_path:
*+ /home/users/nhpoole/ee272b/ee272b_mixed_signal_mmwave_accelerator/designs/pulse_generator_lvs.sch
.subckt pulse_generator_lvs  VDD VSS trigb pulse clk
*.ipin trigb
*.ipin VDD
*.ipin VSS
*.ipin clk
*.opin pulse
x1 net4 net2 clk net6 VDD VSS dff_stdcell
x2 trigb trig VDD VSS inv1
x3 net2 net7 clk net3 VDD VSS dff_stdcell
x4 net3 net1 clk net5 VDD VSS dff_stdcell
x5 trig net4 clk net8 VDD VSS dff_stdcell
x6 net2 pulse net1 VDD VSS and2 M=1
.ends


* expanding   symbol:
*+  /home/users/nhpoole/ee272b/ee272b_mixed_signal_mmwave_accelerator/designs/txgate_lvs.sym # of pins=5
* sym_path: /home/users/nhpoole/ee272b/ee272b_mixed_signal_mmwave_accelerator/designs/txgate_lvs.sym
* sch_path: /home/users/nhpoole/ee272b/ee272b_mixed_signal_mmwave_accelerator/designs/txgate_lvs.sch
.subckt txgate_lvs  VDD tx VSS out in
*.ipin in
*.opin out
*.ipin VDD
*.ipin VSS
*.ipin tx
XM7 in txb out VDD sky130_fd_pr__pfet_01v8_hvt L=1 W=2 nf=1 ad='int((nf+1)/2) * W/nf * 0.29' as='int((nf+2)/2) * W/nf * 0.29'
+ pd='2*int((nf+1)/2) * (W/nf + 0.29)' ps='2*int((nf+2)/2) * (W/nf + 0.29)' nrd='0.29 / W' nrs='0.29 / W'
+ sa=0 sb=0 sd=0 mult=4 m=4 
XM8 out tx in VSS sky130_fd_pr__nfet_01v8 L=1 W=1 nf=1 ad='int((nf+1)/2) * W/nf * 0.29' as='int((nf+2)/2) * W/nf * 0.29'
+ pd='2*int((nf+1)/2) * (W/nf + 0.29)' ps='2*int((nf+2)/2) * (W/nf + 0.29)' nrd='0.29 / W' nrs='0.29 / W'
+ sa=0 sb=0 sd=0 mult=4 m=4 
XM1 out VSS VSS VSS sky130_fd_pr__nfet_01v8 L=1 W=1 nf=1 ad='int((nf+1)/2) * W/nf * 0.29' as='int((nf+2)/2) * W/nf * 0.29'
+ pd='2*int((nf+1)/2) * (W/nf + 0.29)' ps='2*int((nf+2)/2) * (W/nf + 0.29)' nrd='0.29 / W' nrs='0.29 / W'
+ sa=0 sb=0 sd=0 mult=2 m=2 