.subckt dac_8bit_lvs sample VDD VSS vlow vref vin q7 q6 q5 q4 q3 q2 q1 q0 ibiasn ibiasp adc_clk
+ comp_out comp_outm vcom
*.ipin sample
*.ipin VDD
*.ipin VSS
*.ipin vlow
*.ipin vref
*.ipin vin
*.ipin q7
*.ipin q6
*.ipin q5
*.ipin q4
*.ipin q3
*.ipin q2
*.ipin q1
*.ipin q0
*.ipin ibiasn
*.ipin ibiasp
*.ipin adc_clk
*.opin comp_out
*.opin comp_outm
*.opin vcom
XM7 vcom adc_run vlow VDD sky130_fd_pr__pfet_01v8_hvt L=1 W=2 nf=1 ad='int((nf+1)/2) * W/nf * 0.29' as='int((nf+2)/2) * W/nf * 0.29'
+ pd='2*int((nf+1)/2) * (W/nf + 0.29)' ps='2*int((nf+2)/2) * (W/nf + 0.29)' nrd='0.29 / W' nrs='0.29 / W'
+ sa=0 sb=0 sd=0 mult=4 m=4 
XM8 vlow sample vcom VSS sky130_fd_pr__nfet_01v8 L=1 W=1 nf=1 ad='int((nf+1)/2) * W/nf * 0.29' as='int((nf+2)/2) * W/nf * 0.29'
+ pd='2*int((nf+1)/2) * (W/nf + 0.29)' ps='2*int((nf+2)/2) * (W/nf + 0.29)' nrd='0.29 / W' nrs='0.29 / W'
+ sa=0 sb=0 sd=0 mult=4 m=4 
x3 sample adc_run VDD VSS inv1
x2 VSS vcom_buf vcom vcom_buf ibiasn VDD se_fold_casc_wide_swing_ota_lvs
x1 vcom_buf vlow comp_out comp_outm ibiasp VDD VSS adc_clk latched_comparator_folded_lvs
x4 VSS vref net9 vlow VDD VSS amux_2to1_lvs
x5 q0 vref net8 vlow VDD VSS amux_2to1_lvs
x6 q1 vref net7 vlow VDD VSS amux_2to1_lvs
x7 q2 vref net6 vlow VDD VSS amux_2to1_lvs
x8 q3 vref net5 vlow VDD VSS amux_2to1_lvs
x9 q4 vref net4 vlow VDD VSS amux_2to1_lvs
x10 q5 vref net3 vlow VDD VSS amux_2to1_lvs
x11 q6 vref net2 vlow VDD VSS amux_2to1_lvs
x12 q7 vref net1 vlow VDD VSS amux_2to1_lvs
x13 sample vin cdumm net9 VDD VSS amux_2to1_lvs
x14 sample vin c0m net8 VDD VSS amux_2to1_lvs
x15 sample vin c1m net7 VDD VSS amux_2to1_lvs
x16 sample vin c2m net6 VDD VSS amux_2to1_lvs
x17 sample vin c3m net5 VDD VSS amux_2to1_lvs
x18 sample vin c4m net4 VDD VSS amux_2to1_lvs
x19 sample vin c5m net3 VDD VSS amux_2to1_lvs
x20 sample vin c6m net2 VDD VSS amux_2to1_lvs
x21 sample vin c7m net1 VDD VSS amux_2to1_lvs
XC1 vcom cdumm sky130_fd_pr__cap_mim_m3_1 W=7 L=7 MF=1 m=1
XC2 vcom c0m sky130_fd_pr__cap_mim_m3_1 W=7 L=7 MF=1 m=1
XC3 vcom c1m sky130_fd_pr__cap_mim_m3_1 W=7 L=7 MF=2 m=2
XC4 vcom c2m sky130_fd_pr__cap_mim_m3_1 W=7 L=7 MF=4 m=4
XC5 vcom c3m sky130_fd_pr__cap_mim_m3_1 W=7 L=7 MF=8 m=8
XC6 vcom c4m sky130_fd_pr__cap_mim_m3_1 W=7 L=7 MF=16 m=16
XC7 vcom c5m sky130_fd_pr__cap_mim_m3_1 W=7 L=7 MF=32 m=32
XC8 vcom c6m sky130_fd_pr__cap_mim_m3_1 W=7 L=7 MF=64 m=64
XC9 vcom c7m sky130_fd_pr__cap_mim_m3_1 W=7 L=7 MF=128 m=128
XC10 vcom vcom sky130_fd_pr__cap_mim_m3_1 W=7 L=7 MF=68 m=68
XM1 vcom VSS VSS VSS sky130_fd_pr__nfet_01v8 L=1 W=1 nf=1 ad='int((nf+1)/2) * W/nf * 0.29' as='int((nf+2)/2) * W/nf * 0.29'
+ pd='2*int((nf+1)/2) * (W/nf + 0.29)' ps='2*int((nf+2)/2) * (W/nf + 0.29)' nrd='0.29 / W' nrs='0.29 / W'
+ sa=0 sb=0 sd=0 mult=2 m=2 
XM2 VDD VDD vcom VDD sky130_fd_pr__pfet_01v8_hvt L=1 W=2 nf=1 ad='int((nf+1)/2) * W/nf * 0.29' as='int((nf+2)/2) * W/nf * 0.29'
+ pd='2*int((nf+1)/2) * (W/nf + 0.29)' ps='2*int((nf+2)/2) * (W/nf + 0.29)' nrd='0.29 / W' nrs='0.29 / W'
+ sa=0 sb=0 sd=0 mult=2 m=2 
.ends

* expanding   symbol:
*+  /home/users/nhpoole/ee272b/ee272b_mixed_signal_mmwave_accelerator/designs/inv1.sym # of pins=4
* sym_path: /home/users/nhpoole/ee272b/ee272b_mixed_signal_mmwave_accelerator/designs/inv1.sym
* sch_path: /home/users/nhpoole/ee272b/ee272b_mixed_signal_mmwave_accelerator/designs/inv1.sch
.subckt inv1  A Y VDD VSS
*.ipin A
*.opin Y
*.ipin VDD
*.ipin VSS
XM2 Y A VSS VSS sky130_fd_pr__nfet_01v8 L=0.15 W=0.65 nf=1 ad='int((nf+1)/2) * W/nf * 0.29' as='int((nf+2)/2) * W/nf * 0.29'
+ pd='2*int((nf+1)/2) * (W/nf + 0.29)' ps='2*int((nf+2)/2) * (W/nf + 0.29)' nrd='0.29 / W' nrs='0.29 / W'
+ sa=0 sb=0 sd=0 mult=1 m=1 
XM1 Y A VDD VDD sky130_fd_pr__pfet_01v8_hvt L=0.15 W=1 nf=1 ad='int((nf+1)/2) * W/nf * 0.29' as='int((nf+2)/2) * W/nf * 0.29'
+ pd='2*int((nf+1)/2) * (W/nf + 0.29)' ps='2*int((nf+2)/2) * (W/nf + 0.29)' nrd='0.29 / W' nrs='0.29 / W'
+ sa=0 sb=0 sd=0 mult=1 m=1 
.ends


* expanding   symbol:
*+  /home/users/nhpoole/ee272b/ee272b_mixed_signal_mmwave_accelerator/designs/se_fold_casc_wide_swing_ota_lvs.sym # of pins=6
* sym_path:
*+ /home/users/nhpoole/ee272b/ee272b_mixed_signal_mmwave_accelerator/designs/se_fold_casc_wide_swing_ota_lvs.sym
* sch_path:
*+ /home/users/nhpoole/ee272b/ee272b_mixed_signal_mmwave_accelerator/designs/se_fold_casc_wide_swing_ota_lvs.sch
.subckt se_fold_casc_wide_swing_ota_lvs  VSS vo vip vim ibiasn VDD
*.ipin vip
*.ipin vim
*.opin vo
*.ipin ibiasn
*.ipin VDD
*.ipin VSS
XM11 vmirror vbias3 vcascnm VSS sky130_fd_pr__nfet_01v8 L=4.8 W=3 nf=1 ad='int((nf+1)/2) * W/nf * 0.29'
+ as='int((nf+2)/2) * W/nf * 0.29' pd='2*int((nf+1)/2) * (W/nf + 0.29)' ps='2*int((nf+2)/2) * (W/nf + 0.29)'
+ nrd='0.29 / W' nrs='0.29 / W' sa=0 sb=0 sd=0 mult=18 m=18 
XM12 vmirror vbias2 vcascpm VDD sky130_fd_pr__pfet_01v8 L=4.8 W=3 nf=1 ad='int((nf+1)/2) * W/nf * 0.29'
+ as='int((nf+2)/2) * W/nf * 0.29' pd='2*int((nf+1)/2) * (W/nf + 0.29)' ps='2*int((nf+2)/2) * (W/nf + 0.29)'
+ nrd='0.29 / W' nrs='0.29 / W' sa=0 sb=0 sd=0 mult=7 m=7 
XM5 vtail_cascn vbias4 VSS VSS sky130_fd_pr__nfet_01v8 L=4.8 W=3 nf=1 ad='int((nf+1)/2) * W/nf * 0.29'
+ as='int((nf+2)/2) * W/nf * 0.29' pd='2*int((nf+1)/2) * (W/nf + 0.29)' ps='2*int((nf+2)/2) * (W/nf + 0.29)'
+ nrd='0.29 / W' nrs='0.29 / W' sa=0 sb=0 sd=0 mult=36 m=36 
XM6 vtail_cascp vbias1 VDD VDD sky130_fd_pr__pfet_01v8_lvt L=4.8 W=3 nf=1 ad='int((nf+1)/2) * W/nf * 0.29'
+ as='int((nf+2)/2) * W/nf * 0.29' pd='2*int((nf+1)/2) * (W/nf + 0.29)' ps='2*int((nf+2)/2) * (W/nf + 0.29)'
+ nrd='0.29 / W' nrs='0.29 / W' sa=0 sb=0 sd=0 mult=12 m=12 
XM3 vcascnm vip vtail_cascp VDD sky130_fd_pr__pfet_01v8_lvt L=4.8 W=3 nf=1 ad='int((nf+1)/2) * W/nf * 0.29'
+ as='int((nf+2)/2) * W/nf * 0.29' pd='2*int((nf+1)/2) * (W/nf + 0.29)' ps='2*int((nf+2)/2) * (W/nf + 0.29)'
+ nrd='0.29 / W' nrs='0.29 / W' sa=0 sb=0 sd=0 mult=4 m=4 
XM1 vcascpm vip vtail_cascn VSS sky130_fd_pr__nfet_01v8_lvt L=4.8 W=3 nf=1 ad='int((nf+1)/2) * W/nf * 0.29'
+ as='int((nf+2)/2) * W/nf * 0.29' pd='2*int((nf+1)/2) * (W/nf + 0.29)' ps='2*int((nf+2)/2) * (W/nf + 0.29)'
+ nrd='0.29 / W' nrs='0.29 / W' sa=0 sb=0 sd=0 mult=18 m=18 
XM7 M7d vbias1 VDD VDD sky130_fd_pr__pfet_01v8_lvt L=4.8 W=3 nf=1 ad='int((nf+1)/2) * W/nf * 0.29' as='int((nf+2)/2) * W/nf * 0.29'
+ pd='2*int((nf+1)/2) * (W/nf + 0.29)' ps='2*int((nf+2)/2) * (W/nf + 0.29)' nrd='0.29 / W' nrs='0.29 / W'
+ sa=0 sb=0 sd=0 mult=6 m=6 
XM8 M8d vbias2 M9d VDD sky130_fd_pr__pfet_01v8 L=4.8 W=3 nf=1 ad='int((nf+1)/2) * W/nf * 0.29' as='int((nf+2)/2) * W/nf * 0.29'
+ pd='2*int((nf+1)/2) * (W/nf + 0.29)' ps='2*int((nf+2)/2) * (W/nf + 0.29)' nrd='0.29 / W' nrs='0.29 / W'
+ sa=0 sb=0 sd=0 mult=6 m=6 
XM9 M9d vbias1 VDD VDD sky130_fd_pr__pfet_01v8_lvt L=4.8 W=3 nf=1 ad='int((nf+1)/2) * W/nf * 0.29' as='int((nf+2)/2) * W/nf * 0.29'
+ pd='2*int((nf+1)/2) * (W/nf + 0.29)' ps='2*int((nf+2)/2) * (W/nf + 0.29)' nrd='0.29 / W' nrs='0.29 / W'
+ sa=0 sb=0 sd=0 mult=6 m=6 
XM13 M13d vbias1 VDD VDD sky130_fd_pr__pfet_01v8_lvt L=4.8 W=3 nf=1 ad='int((nf+1)/2) * W/nf * 0.29'
+ as='int((nf+2)/2) * W/nf * 0.29' pd='2*int((nf+1)/2) * (W/nf + 0.29)' ps='2*int((nf+2)/2) * (W/nf + 0.29)'
+ nrd='0.29 / W' nrs='0.29 / W' sa=0 sb=0 sd=0 mult=6 m=6 
XM14 vbias1 vbias2 M7d VDD sky130_fd_pr__pfet_01v8 L=4.8 W=3 nf=1 ad='int((nf+1)/2) * W/nf * 0.29' as='int((nf+2)/2) * W/nf * 0.29'
+ pd='2*int((nf+1)/2) * (W/nf + 0.29)' ps='2*int((nf+2)/2) * (W/nf + 0.29)' nrd='0.29 / W' nrs='0.29 / W'
+ sa=0 sb=0 sd=0 mult=6 m=6 
XM16 M16d vbias2 M13d VDD sky130_fd_pr__pfet_01v8 L=4.8 W=3 nf=1 ad='int((nf+1)/2) * W/nf * 0.29' as='int((nf+2)/2) * W/nf * 0.29'
+ pd='2*int((nf+1)/2) * (W/nf + 0.29)' ps='2*int((nf+2)/2) * (W/nf + 0.29)' nrd='0.29 / W' nrs='0.29 / W'
+ sa=0 sb=0 sd=0 mult=6 m=6 
XM26 vbias2 ibiasn VSS VSS sky130_fd_pr__nfet_01v8 L=4.8 W=3 nf=1 ad='int((nf+1)/2) * W/nf * 0.29' as='int((nf+2)/2) * W/nf * 0.29'
+ pd='2*int((nf+1)/2) * (W/nf + 0.29)' ps='2*int((nf+2)/2) * (W/nf + 0.29)' nrd='0.29 / W' nrs='0.29 / W'
+ sa=0 sb=0 sd=0 mult=4 m=4 
XM17 vbias1 vbias1 vbias2 VSS sky130_fd_pr__nfet_01v8_lvt L=4.8 W=3 nf=1 ad='int((nf+1)/2) * W/nf * 0.29'
+ as='int((nf+2)/2) * W/nf * 0.29' pd='2*int((nf+1)/2) * (W/nf + 0.29)' ps='2*int((nf+2)/2) * (W/nf + 0.29)'
+ nrd='0.29 / W' nrs='0.29 / W' sa=0 sb=0 sd=0 mult=56 m=56 
XM10 vcascnp vbias4 VSS VSS sky130_fd_pr__nfet_01v8 L=4.8 W=3 nf=1 ad='int((nf+1)/2) * W/nf * 0.29' as='int((nf+2)/2) * W/nf * 0.29'
+ pd='2*int((nf+1)/2) * (W/nf + 0.29)' ps='2*int((nf+2)/2) * (W/nf + 0.29)' nrd='0.29 / W' nrs='0.29 / W'
+ sa=0 sb=0 sd=0 mult=36 m=36 
XM18 vcascnm vbias4 VSS VSS sky130_fd_pr__nfet_01v8 L=4.8 W=3 nf=1 ad='int((nf+1)/2) * W/nf * 0.29' as='int((nf+2)/2) * W/nf * 0.29'
+ pd='2*int((nf+1)/2) * (W/nf + 0.29)' ps='2*int((nf+2)/2) * (W/nf + 0.29)' nrd='0.29 / W' nrs='0.29 / W'
+ sa=0 sb=0 sd=0 mult=36 m=36 
XM4 vcascpp vim vtail_cascn VSS sky130_fd_pr__nfet_01v8_lvt L=4.8 W=3 nf=1 ad='int((nf+1)/2) * W/nf * 0.29'
+ as='int((nf+2)/2) * W/nf * 0.29' pd='2*int((nf+1)/2) * (W/nf + 0.29)' ps='2*int((nf+2)/2) * (W/nf + 0.29)'
+ nrd='0.29 / W' nrs='0.29 / W' sa=0 sb=0 sd=0 mult=18 m=18 
XM2 vcascnp vim vtail_cascp VDD sky130_fd_pr__pfet_01v8_lvt L=4.8 W=3 nf=1 ad='int((nf+1)/2) * W/nf * 0.29'
+ as='int((nf+2)/2) * W/nf * 0.29' pd='2*int((nf+1)/2) * (W/nf + 0.29)' ps='2*int((nf+2)/2) * (W/nf + 0.29)'
+ nrd='0.29 / W' nrs='0.29 / W' sa=0 sb=0 sd=0 mult=4 m=4 
XM15 vcascpp vmirror VDD VDD sky130_fd_pr__pfet_01v8_lvt L=4.8 W=3 nf=1 ad='int((nf+1)/2) * W/nf * 0.29'
+ as='int((nf+2)/2) * W/nf * 0.29' pd='2*int((nf+1)/2) * (W/nf + 0.29)' ps='2*int((nf+2)/2) * (W/nf + 0.29)'
+ nrd='0.29 / W' nrs='0.29 / W' sa=0 sb=0 sd=0 mult=12 m=12 
XM19 vcascpm vmirror VDD VDD sky130_fd_pr__pfet_01v8_lvt L=4.8 W=3 nf=1 ad='int((nf+1)/2) * W/nf * 0.29'
+ as='int((nf+2)/2) * W/nf * 0.29' pd='2*int((nf+1)/2) * (W/nf + 0.29)' ps='2*int((nf+2)/2) * (W/nf + 0.29)'
+ nrd='0.29 / W' nrs='0.29 / W' sa=0 sb=0 sd=0 mult=12 m=12 
XM20 M21d vbias4 VSS VSS sky130_fd_pr__nfet_01v8 L=4.8 W=3 nf=1 ad='int((nf+1)/2) * W/nf * 0.29' as='int((nf+2)/2) * W/nf * 0.29'
+ pd='2*int((nf+1)/2) * (W/nf + 0.29)' ps='2*int((nf+2)/2) * (W/nf + 0.29)' nrd='0.29 / W' nrs='0.29 / W'
+ sa=0 sb=0 sd=0 mult=18 m=18 
XM21 vbias4 vbias3 M21d VSS sky130_fd_pr__nfet_01v8 L=4.8 W=3 nf=1 ad='int((nf+1)/2) * W/nf * 0.29' as='int((nf+2)/2) * W/nf * 0.29'
+ pd='2*int((nf+1)/2) * (W/nf + 0.29)' ps='2*int((nf+2)/2) * (W/nf + 0.29)' nrd='0.29 / W' nrs='0.29 / W'
+ sa=0 sb=0 sd=0 mult=18 m=18 
XM22 M8d M8d vbias3 VSS sky130_fd_pr__nfet_01v8 L=4.8 W=3 nf=1 ad='int((nf+1)/2) * W/nf * 0.29' as='int((nf+2)/2) * W/nf * 0.29'
+ pd='2*int((nf+1)/2) * (W/nf + 0.29)' ps='2*int((nf+2)/2) * (W/nf + 0.29)' nrd='0.29 / W' nrs='0.29 / W'
+ sa=0 sb=0 sd=0 mult=40 m=40 
XM23 vbias3 M8d vbias4 VSS sky130_fd_pr__nfet_01v8 L=4.8 W=3 nf=1 ad='int((nf+1)/2) * W/nf * 0.29' as='int((nf+2)/2) * W/nf * 0.29'
+ pd='2*int((nf+1)/2) * (W/nf + 0.29)' ps='2*int((nf+2)/2) * (W/nf + 0.29)' nrd='0.29 / W' nrs='0.29 / W'
+ sa=0 sb=0 sd=0 mult=2 m=2 
XM24 vo vbias3 vcascnp VSS sky130_fd_pr__nfet_01v8 L=4.8 W=3 nf=1 ad='int((nf+1)/2) * W/nf * 0.29' as='int((nf+2)/2) * W/nf * 0.29'
+ pd='2*int((nf+1)/2) * (W/nf + 0.29)' ps='2*int((nf+2)/2) * (W/nf + 0.29)' nrd='0.29 / W' nrs='0.29 / W'
+ sa=0 sb=0 sd=0 mult=18 m=18 
XM25 ibiasn ibiasn VSS VSS sky130_fd_pr__nfet_01v8 L=4.8 W=3 nf=1 ad='int((nf+1)/2) * W/nf * 0.29' as='int((nf+2)/2) * W/nf * 0.29'
+ pd='2*int((nf+1)/2) * (W/nf + 0.29)' ps='2*int((nf+2)/2) * (W/nf + 0.29)' nrd='0.29 / W' nrs='0.29 / W'
+ sa=0 sb=0 sd=0 mult=4 m=4 
XM27 M16d M16d VSS VSS sky130_fd_pr__nfet_01v8 L=4.8 W=3 nf=1 ad='int((nf+1)/2) * W/nf * 0.29' as='int((nf+2)/2) * W/nf * 0.29'
+ pd='2*int((nf+1)/2) * (W/nf + 0.29)' ps='2*int((nf+2)/2) * (W/nf + 0.29)' nrd='0.29 / W' nrs='0.29 / W'
+ sa=0 sb=0 sd=0 mult=1 m=1 
XM28 vo vbias2 vcascpp VDD sky130_fd_pr__pfet_01v8 L=4.8 W=3 nf=1 ad='int((nf+1)/2) * W/nf * 0.29' as='int((nf+2)/2) * W/nf * 0.29'
+ pd='2*int((nf+1)/2) * (W/nf + 0.29)' ps='2*int((nf+2)/2) * (W/nf + 0.29)' nrd='0.29 / W' nrs='0.29 / W'
+ sa=0 sb=0 sd=0 mult=7 m=7 
XM29 vbias1 VDD VDD VDD sky130_fd_pr__pfet_01v8 L=4.8 W=3 nf=1 ad='int((nf+1)/2) * W/nf * 0.29' as='int((nf+2)/2) * W/nf * 0.29'
+ pd='2*int((nf+1)/2) * (W/nf + 0.29)' ps='2*int((nf+2)/2) * (W/nf + 0.29)' nrd='0.29 / W' nrs='0.29 / W'
+ sa=0 sb=0 sd=0 mult=2 m=2 
XM31 M8d VDD VDD VDD sky130_fd_pr__pfet_01v8 L=4.8 W=3 nf=1 ad='int((nf+1)/2) * W/nf * 0.29' as='int((nf+2)/2) * W/nf * 0.29'
+ pd='2*int((nf+1)/2) * (W/nf + 0.29)' ps='2*int((nf+2)/2) * (W/nf + 0.29)' nrd='0.29 / W' nrs='0.29 / W'
+ sa=0 sb=0 sd=0 mult=2 m=2 
XM32 vcascpp VDD VDD VDD sky130_fd_pr__pfet_01v8 L=4.8 W=3 nf=1 ad='int((nf+1)/2) * W/nf * 0.29' as='int((nf+2)/2) * W/nf * 0.29'
+ pd='2*int((nf+1)/2) * (W/nf + 0.29)' ps='2*int((nf+2)/2) * (W/nf + 0.29)' nrd='0.29 / W' nrs='0.29 / W'
+ sa=0 sb=0 sd=0 mult=3 m=3 
XM33 vcascpm VDD VDD VDD sky130_fd_pr__pfet_01v8 L=4.8 W=3 nf=1 ad='int((nf+1)/2) * W/nf * 0.29' as='int((nf+2)/2) * W/nf * 0.29'
+ pd='2*int((nf+1)/2) * (W/nf + 0.29)' ps='2*int((nf+2)/2) * (W/nf + 0.29)' nrd='0.29 / W' nrs='0.29 / W'
+ sa=0 sb=0 sd=0 mult=3 m=3 
XM34 M16d VDD VDD VDD sky130_fd_pr__pfet_01v8 L=4.8 W=3 nf=1 ad='int((nf+1)/2) * W/nf * 0.29' as='int((nf+2)/2) * W/nf * 0.29'
+ pd='2*int((nf+1)/2) * (W/nf + 0.29)' ps='2*int((nf+2)/2) * (W/nf + 0.29)' nrd='0.29 / W' nrs='0.29 / W'
+ sa=0 sb=0 sd=0 mult=2 m=2 
XM35 M13d VDD VDD VDD sky130_fd_pr__pfet_01v8 L=4.8 W=3 nf=1 ad='int((nf+1)/2) * W/nf * 0.29' as='int((nf+2)/2) * W/nf * 0.29'
+ pd='2*int((nf+1)/2) * (W/nf + 0.29)' ps='2*int((nf+2)/2) * (W/nf + 0.29)' nrd='0.29 / W' nrs='0.29 / W'
+ sa=0 sb=0 sd=0 mult=2 m=2 
XM39 M7d M7d M7d VDD sky130_fd_pr__pfet_01v8 L=4.8 W=3 nf=1 ad='int((nf+1)/2) * W/nf * 0.29' as='int((nf+2)/2) * W/nf * 0.29'
+ pd='2*int((nf+1)/2) * (W/nf + 0.29)' ps='2*int((nf+2)/2) * (W/nf + 0.29)' nrd='0.29 / W' nrs='0.29 / W'
+ sa=0 sb=0 sd=0 mult=2 m=2 
XM40 VSS VSS VSS VSS sky130_fd_pr__nfet_01v8 L=4.8 W=3 nf=1 ad='int((nf+1)/2) * W/nf * 0.29' as='int((nf+2)/2) * W/nf * 0.29'
+ pd='2*int((nf+1)/2) * (W/nf + 0.29)' ps='2*int((nf+2)/2) * (W/nf + 0.29)' nrd='0.29 / W' nrs='0.29 / W'
+ sa=0 sb=0 sd=0 mult=5 m=5 
XM41 vo vo vo VSS sky130_fd_pr__nfet_01v8 L=4.8 W=3 nf=1 ad='int((nf+1)/2) * W/nf * 0.29' as='int((nf+2)/2) * W/nf * 0.29'
+ pd='2*int((nf+1)/2) * (W/nf + 0.29)' ps='2*int((nf+2)/2) * (W/nf + 0.29)' nrd='0.29 / W' nrs='0.29 / W'
+ sa=0 sb=0 sd=0 mult=2 m=2 
XM42 M9d M9d M9d VDD sky130_fd_pr__pfet_01v8 L=4.8 W=3 nf=1 ad='int((nf+1)/2) * W/nf * 0.29' as='int((nf+2)/2) * W/nf * 0.29'
+ pd='2*int((nf+1)/2) * (W/nf + 0.29)' ps='2*int((nf+2)/2) * (W/nf + 0.29)' nrd='0.29 / W' nrs='0.29 / W'
+ sa=0 sb=0 sd=0 mult=2 m=2 
XM51 vo vo vo VDD sky130_fd_pr__pfet_01v8 L=4.8 W=3 nf=1 ad='int((nf+1)/2) * W/nf * 0.29' as='int((nf+2)/2) * W/nf * 0.29'
+ pd='2*int((nf+1)/2) * (W/nf + 0.29)' ps='2*int((nf+2)/2) * (W/nf + 0.29)' nrd='0.29 / W' nrs='0.29 / W'
+ sa=0 sb=0 sd=0 mult=2 m=2 
XM52 vmirror vmirror vmirror VDD sky130_fd_pr__pfet_01v8 L=4.8 W=3 nf=1 ad='int((nf+1)/2) * W/nf * 0.29'
+ as='int((nf+2)/2) * W/nf * 0.29' pd='2*int((nf+1)/2) * (W/nf + 0.29)' ps='2*int((nf+2)/2) * (W/nf + 0.29)'
+ nrd='0.29 / W' nrs='0.29 / W' sa=0 sb=0 sd=0 mult=2 m=2 
XM53 vmirror vmirror vmirror VSS sky130_fd_pr__nfet_01v8 L=4.8 W=3 nf=1 ad='int((nf+1)/2) * W/nf * 0.29'
+ as='int((nf+2)/2) * W/nf * 0.29' pd='2*int((nf+1)/2) * (W/nf + 0.29)' ps='2*int((nf+2)/2) * (W/nf + 0.29)'
+ nrd='0.29 / W' nrs='0.29 / W' sa=0 sb=0 sd=0 mult=2 m=2 
XM54 M9d M9d M9d VDD sky130_fd_pr__pfet_01v8_lvt L=4.8 W=3 nf=1 ad='int((nf+1)/2) * W/nf * 0.29' as='int((nf+2)/2) * W/nf * 0.29'
+ pd='2*int((nf+1)/2) * (W/nf + 0.29)' ps='2*int((nf+2)/2) * (W/nf + 0.29)' nrd='0.29 / W' nrs='0.29 / W'
+ sa=0 sb=0 sd=0 mult=2 m=2 
XM55 M7d M7d M7d VDD sky130_fd_pr__pfet_01v8_lvt L=4.8 W=3 nf=1 ad='int((nf+1)/2) * W/nf * 0.29' as='int((nf+2)/2) * W/nf * 0.29'
+ pd='2*int((nf+1)/2) * (W/nf + 0.29)' ps='2*int((nf+2)/2) * (W/nf + 0.29)' nrd='0.29 / W' nrs='0.29 / W'
+ sa=0 sb=0 sd=0 mult=2 m=2 
XM43 M13d M13d M13d VDD sky130_fd_pr__pfet_01v8_lvt L=4.8 W=3 nf=1 ad='int((nf+1)/2) * W/nf * 0.29' as='int((nf+2)/2) * W/nf * 0.29'
+ pd='2*int((nf+1)/2) * (W/nf + 0.29)' ps='2*int((nf+2)/2) * (W/nf + 0.29)' nrd='0.29 / W' nrs='0.29 / W'
+ sa=0 sb=0 sd=0 mult=2 m=2 
XM58 vtail_cascn vtail_cascn vtail_cascn VSS sky130_fd_pr__nfet_01v8 L=4.8 W=3 nf=1 ad='int((nf+1)/2) * W/nf * 0.29'
+ as='int((nf+2)/2) * W/nf * 0.29' pd='2*int((nf+1)/2) * (W/nf + 0.29)' ps='2*int((nf+2)/2) * (W/nf + 0.29)'
+ nrd='0.29 / W' nrs='0.29 / W' sa=0 sb=0 sd=0 mult=4 m=4 
XM60 vtail_cascn vtail_cascn vtail_cascn VSS sky130_fd_pr__nfet_01v8_lvt L=4.8 W=3 nf=1 ad='int((nf+1)/2) * W/nf * 0.29'
+ as='int((nf+2)/2) * W/nf * 0.29' pd='2*int((nf+1)/2) * (W/nf + 0.29)' ps='2*int((nf+2)/2) * (W/nf + 0.29)'
+ nrd='0.29 / W' nrs='0.29 / W' sa=0 sb=0 sd=0 mult=4 m=4 
XM61 vcascpm vcascpm vcascpm VSS sky130_fd_pr__nfet_01v8_lvt L=4.8 W=3 nf=1 ad='int((nf+1)/2) * W/nf * 0.29'
+ as='int((nf+2)/2) * W/nf * 0.29' pd='2*int((nf+1)/2) * (W/nf + 0.29)' ps='2*int((nf+2)/2) * (W/nf + 0.29)'
+ nrd='0.29 / W' nrs='0.29 / W' sa=0 sb=0 sd=0 mult=2 m=2 
XM62 vcascpp vcascpp vcascpp VSS sky130_fd_pr__nfet_01v8_lvt L=4.8 W=3 nf=1 ad='int((nf+1)/2) * W/nf * 0.29'
+ as='int((nf+2)/2) * W/nf * 0.29' pd='2*int((nf+1)/2) * (W/nf + 0.29)' ps='2*int((nf+2)/2) * (W/nf + 0.29)'
+ nrd='0.29 / W' nrs='0.29 / W' sa=0 sb=0 sd=0 mult=2 m=2 
XM66 ibiasn ibiasn ibiasn VSS sky130_fd_pr__nfet_01v8 L=4.8 W=3 nf=1 ad='int((nf+1)/2) * W/nf * 0.29'
+ as='int((nf+2)/2) * W/nf * 0.29' pd='2*int((nf+1)/2) * (W/nf + 0.29)' ps='2*int((nf+2)/2) * (W/nf + 0.29)'
+ nrd='0.29 / W' nrs='0.29 / W' sa=0 sb=0 sd=0 mult=2 m=2 
XM67 vbias2 vbias2 vbias2 VSS sky130_fd_pr__nfet_01v8_lvt L=4.8 W=3 nf=1 ad='int((nf+1)/2) * W/nf * 0.29'
+ as='int((nf+2)/2) * W/nf * 0.29' pd='2*int((nf+1)/2) * (W/nf + 0.29)' ps='2*int((nf+2)/2) * (W/nf + 0.29)'
+ nrd='0.29 / W' nrs='0.29 / W' sa=0 sb=0 sd=0 mult=8 m=8 
XM68 vbias1 vbias1 vbias1 VSS sky130_fd_pr__nfet_01v8_lvt L=4.8 W=3 nf=1 ad='int((nf+1)/2) * W/nf * 0.29'
+ as='int((nf+2)/2) * W/nf * 0.29' pd='2*int((nf+1)/2) * (W/nf + 0.29)' ps='2*int((nf+2)/2) * (W/nf + 0.29)'
+ nrd='0.29 / W' nrs='0.29 / W' sa=0 sb=0 sd=0 mult=8 m=8 
XC3 VSS VSS sky130_fd_pr__cap_mim_m3_1 W=31 L=2 MF=4 m=4
XC4 VSS VSS sky130_fd_pr__cap_mim_m3_1 W=4 L=29 MF=4 m=4
XC1 vo VSS sky130_fd_pr__cap_mim_m3_1 W=26 L=24 MF=4 m=4
XM44 vcascpm vcascpm vcascpm VDD sky130_fd_pr__pfet_01v8_lvt L=4.8 W=3 nf=1 ad='int((nf+1)/2) * W/nf * 0.29'
+ as='int((nf+2)/2) * W/nf * 0.29' pd='2*int((nf+1)/2) * (W/nf + 0.29)' ps='2*int((nf+2)/2) * (W/nf + 0.29)'
+ nrd='0.29 / W' nrs='0.29 / W' sa=0 sb=0 sd=0 mult=2 m=2 
XM45 vcascpp vcascpp vcascpp VDD sky130_fd_pr__pfet_01v8_lvt L=4.8 W=3 nf=1 ad='int((nf+1)/2) * W/nf * 0.29'
+ as='int((nf+2)/2) * W/nf * 0.29' pd='2*int((nf+1)/2) * (W/nf + 0.29)' ps='2*int((nf+2)/2) * (W/nf + 0.29)'
+ nrd='0.29 / W' nrs='0.29 / W' sa=0 sb=0 sd=0 mult=2 m=2 
XM46 vo VDD VDD VDD sky130_fd_pr__pfet_01v8 L=4.8 W=3 nf=1 ad='int((nf+1)/2) * W/nf * 0.29' as='int((nf+2)/2) * W/nf * 0.29'
+ pd='2*int((nf+1)/2) * (W/nf + 0.29)' ps='2*int((nf+2)/2) * (W/nf + 0.29)' nrd='0.29 / W' nrs='0.29 / W'
+ sa=0 sb=0 sd=0 mult=1 m=1 
XM47 vmirror VDD VDD VDD sky130_fd_pr__pfet_01v8 L=4.8 W=3 nf=1 ad='int((nf+1)/2) * W/nf * 0.29' as='int((nf+2)/2) * W/nf * 0.29'
+ pd='2*int((nf+1)/2) * (W/nf + 0.29)' ps='2*int((nf+2)/2) * (W/nf + 0.29)' nrd='0.29 / W' nrs='0.29 / W'
+ sa=0 sb=0 sd=0 mult=1 m=1 
XM48 vcascnm vcascnm vcascnm VDD sky130_fd_pr__pfet_01v8_lvt L=4.8 W=3 nf=1 ad='int((nf+1)/2) * W/nf * 0.29'
+ as='int((nf+2)/2) * W/nf * 0.29' pd='2*int((nf+1)/2) * (W/nf + 0.29)' ps='2*int((nf+2)/2) * (W/nf + 0.29)'
+ nrd='0.29 / W' nrs='0.29 / W' sa=0 sb=0 sd=0 mult=4 m=4 
XM49 vcascnp vcascnp vcascnp VDD sky130_fd_pr__pfet_01v8_lvt L=4.8 W=3 nf=1 ad='int((nf+1)/2) * W/nf * 0.29'
+ as='int((nf+2)/2) * W/nf * 0.29' pd='2*int((nf+1)/2) * (W/nf + 0.29)' ps='2*int((nf+2)/2) * (W/nf + 0.29)'
+ nrd='0.29 / W' nrs='0.29 / W' sa=0 sb=0 sd=0 mult=4 m=4 
XM36 vcascnp vcascnp vcascnp VSS sky130_fd_pr__nfet_01v8 L=4.8 W=3 nf=1 ad='int((nf+1)/2) * W/nf * 0.29'
+ as='int((nf+2)/2) * W/nf * 0.29' pd='2*int((nf+1)/2) * (W/nf + 0.29)' ps='2*int((nf+2)/2) * (W/nf + 0.29)'
+ nrd='0.29 / W' nrs='0.29 / W' sa=0 sb=0 sd=0 mult=2 m=2 
XM50 vcascnm vcascnm vcascnm VSS sky130_fd_pr__nfet_01v8 L=4.8 W=3 nf=1 ad='int((nf+1)/2) * W/nf * 0.29'
+ as='int((nf+2)/2) * W/nf * 0.29' pd='2*int((nf+1)/2) * (W/nf + 0.29)' ps='2*int((nf+2)/2) * (W/nf + 0.29)'
+ nrd='0.29 / W' nrs='0.29 / W' sa=0 sb=0 sd=0 mult=2 m=2 
XM37 VDD VDD VDD VDD sky130_fd_pr__pfet_01v8 L=4.8 W=3 nf=1 ad='int((nf+1)/2) * W/nf * 0.29' as='int((nf+2)/2) * W/nf * 0.29'
+ pd='2*int((nf+1)/2) * (W/nf + 0.29)' ps='2*int((nf+2)/2) * (W/nf + 0.29)' nrd='0.29 / W' nrs='0.29 / W'
+ sa=0 sb=0 sd=0 mult=4 m=4 
XM30 VDD VDD VDD VDD sky130_fd_pr__pfet_01v8_lvt L=4.8 W=3 nf=1 ad='int((nf+1)/2) * W/nf * 0.29' as='int((nf+2)/2) * W/nf * 0.29'
+ pd='2*int((nf+1)/2) * (W/nf + 0.29)' ps='2*int((nf+2)/2) * (W/nf + 0.29)' nrd='0.29 / W' nrs='0.29 / W'
+ sa=0 sb=0 sd=0 mult=12 m=12 
XC2 VSS vo sky130_fd_pr__cap_mim_m3_2 W=24 L=26 MF=4 m=4
XC5 VSS VSS sky130_fd_pr__cap_mim_m3_2 W=29 L=4 MF=4 m=4
XC6 VSS VSS sky130_fd_pr__cap_mim_m3_2 W=2 L=31 MF=4 m=4
.ends


* expanding   symbol:
*+  /home/users/nhpoole/ee272b/ee272b_mixed_signal_mmwave_accelerator/designs/latched_comparator_folded_lvs.sym # of pins=8
* sym_path:
*+ /home/users/nhpoole/ee272b/ee272b_mixed_signal_mmwave_accelerator/designs/latched_comparator_folded_lvs.sym
* sch_path:
*+ /home/users/nhpoole/ee272b/ee272b_mixed_signal_mmwave_accelerator/designs/latched_comparator_folded_lvs.sch
.subckt latched_comparator_folded_lvs  vim vip vop vom ibiasp VDD VSS clk
*.ipin vip
*.ipin vim
*.opin vop
*.opin vom
*.ipin clk
*.ipin ibiasp
*.ipin VDD
*.ipin VSS
XM5 vcompm vcompp VDD VDD sky130_fd_pr__pfet_01v8 L=1 W=2 nf=1 ad='int((nf+1)/2) * W/nf * 0.29' as='int((nf+2)/2) * W/nf * 0.29'
+ pd='2*int((nf+1)/2) * (W/nf + 0.29)' ps='2*int((nf+2)/2) * (W/nf + 0.29)' nrd='0.29 / W' nrs='0.29 / W'
+ sa=0 sb=0 sd=0 mult=4 m=4 
XM11 vcompmb vcompm VSS VSS sky130_fd_pr__nfet_01v8 L=0.15 W=0.65 nf=1 ad='int((nf+1)/2) * W/nf * 0.29'
+ as='int((nf+2)/2) * W/nf * 0.29' pd='2*int((nf+1)/2) * (W/nf + 0.29)' ps='2*int((nf+2)/2) * (W/nf + 0.29)'
+ nrd='0.29 / W' nrs='0.29 / W' sa=0 sb=0 sd=0 mult=1 m=1 
XM13 vcomppb vcompp VSS VSS sky130_fd_pr__nfet_01v8 L=0.15 W=0.65 nf=1 ad='int((nf+1)/2) * W/nf * 0.29'
+ as='int((nf+2)/2) * W/nf * 0.29' pd='2*int((nf+1)/2) * (W/nf + 0.29)' ps='2*int((nf+2)/2) * (W/nf + 0.29)'
+ nrd='0.29 / W' nrs='0.29 / W' sa=0 sb=0 sd=0 mult=1 m=1 
XM15 vcomppb vcompp VDD VDD sky130_fd_pr__pfet_01v8_hvt L=0.15 W=1 nf=1 ad='int((nf+1)/2) * W/nf * 0.29'
+ as='int((nf+2)/2) * W/nf * 0.29' pd='2*int((nf+1)/2) * (W/nf + 0.29)' ps='2*int((nf+2)/2) * (W/nf + 0.29)'
+ nrd='0.29 / W' nrs='0.29 / W' sa=0 sb=0 sd=0 mult=1 m=1 
XM6 vcompp vcompm VDD VDD sky130_fd_pr__pfet_01v8 L=1 W=2 nf=1 ad='int((nf+1)/2) * W/nf * 0.29' as='int((nf+2)/2) * W/nf * 0.29'
+ pd='2*int((nf+1)/2) * (W/nf + 0.29)' ps='2*int((nf+2)/2) * (W/nf + 0.29)' nrd='0.29 / W' nrs='0.29 / W'
+ sa=0 sb=0 sd=0 mult=4 m=4 
XM14 vlatchm vlatchp VSS VSS sky130_fd_pr__nfet_01v8 L=0.3 W=1 nf=1 ad='int((nf+1)/2) * W/nf * 0.29'
+ as='int((nf+2)/2) * W/nf * 0.29' pd='2*int((nf+1)/2) * (W/nf + 0.29)' ps='2*int((nf+2)/2) * (W/nf + 0.29)'
+ nrd='0.29 / W' nrs='0.29 / W' sa=0 sb=0 sd=0 mult=2 m=2 
XM3 vcompm clk VDD VDD sky130_fd_pr__pfet_01v8 L=1 W=2 nf=1 ad='int((nf+1)/2) * W/nf * 0.29' as='int((nf+2)/2) * W/nf * 0.29'
+ pd='2*int((nf+1)/2) * (W/nf + 0.29)' ps='2*int((nf+2)/2) * (W/nf + 0.29)' nrd='0.29 / W' nrs='0.29 / W'
+ sa=0 sb=0 sd=0 mult=1 m=1 
XM7 vcompp clk VDD VDD sky130_fd_pr__pfet_01v8 L=1 W=2 nf=1 ad='int((nf+1)/2) * W/nf * 0.29' as='int((nf+2)/2) * W/nf * 0.29'
+ pd='2*int((nf+1)/2) * (W/nf + 0.29)' ps='2*int((nf+2)/2) * (W/nf + 0.29)' nrd='0.29 / W' nrs='0.29 / W'
+ sa=0 sb=0 sd=0 mult=1 m=1 
XM8 vop vcompm_buf VDD VDD sky130_fd_pr__pfet_01v8_hvt L=0.15 W=1 nf=1 ad='int((nf+1)/2) * W/nf * 0.29'
+ as='int((nf+2)/2) * W/nf * 0.29' pd='2*int((nf+1)/2) * (W/nf + 0.29)' ps='2*int((nf+2)/2) * (W/nf + 0.29)'
+ nrd='0.29 / W' nrs='0.29 / W' sa=0 sb=0 sd=0 mult=1 m=1 
XM9 vop vom VDD VDD sky130_fd_pr__pfet_01v8_hvt L=0.15 W=1 nf=1 ad='int((nf+1)/2) * W/nf * 0.29' as='int((nf+2)/2) * W/nf * 0.29'
+ pd='2*int((nf+1)/2) * (W/nf + 0.29)' ps='2*int((nf+2)/2) * (W/nf + 0.29)' nrd='0.29 / W' nrs='0.29 / W'
+ sa=0 sb=0 sd=0 mult=1 m=1 
XM18 nandm vcompm_buf VSS VSS sky130_fd_pr__nfet_01v8 L=0.15 W=0.65 nf=1 ad='int((nf+1)/2) * W/nf * 0.29'
+ as='int((nf+2)/2) * W/nf * 0.29' pd='2*int((nf+1)/2) * (W/nf + 0.29)' ps='2*int((nf+2)/2) * (W/nf + 0.29)'
+ nrd='0.29 / W' nrs='0.29 / W' sa=0 sb=0 sd=0 mult=1 m=1 
XM19 vop vom nandm VSS sky130_fd_pr__nfet_01v8 L=0.15 W=0.65 nf=1 ad='int((nf+1)/2) * W/nf * 0.29' as='int((nf+2)/2) * W/nf * 0.29'
+ pd='2*int((nf+1)/2) * (W/nf + 0.29)' ps='2*int((nf+2)/2) * (W/nf + 0.29)' nrd='0.29 / W' nrs='0.29 / W'
+ sa=0 sb=0 sd=0 mult=1 m=1 
XM20 vom vop VDD VDD sky130_fd_pr__pfet_01v8_hvt L=0.15 W=1 nf=1 ad='int((nf+1)/2) * W/nf * 0.29' as='int((nf+2)/2) * W/nf * 0.29'
+ pd='2*int((nf+1)/2) * (W/nf + 0.29)' ps='2*int((nf+2)/2) * (W/nf + 0.29)' nrd='0.29 / W' nrs='0.29 / W'
+ sa=0 sb=0 sd=0 mult=1 m=1 
XM21 vom vcompp_buf VDD VDD sky130_fd_pr__pfet_01v8_hvt L=0.15 W=1 nf=1 ad='int((nf+1)/2) * W/nf * 0.29'
+ as='int((nf+2)/2) * W/nf * 0.29' pd='2*int((nf+1)/2) * (W/nf + 0.29)' ps='2*int((nf+2)/2) * (W/nf + 0.29)'
+ nrd='0.29 / W' nrs='0.29 / W' sa=0 sb=0 sd=0 mult=1 m=1 
XM22 nandp vcompp_buf VSS VSS sky130_fd_pr__nfet_01v8 L=0.15 W=0.65 nf=1 ad='int((nf+1)/2) * W/nf * 0.29'
+ as='int((nf+2)/2) * W/nf * 0.29' pd='2*int((nf+1)/2) * (W/nf + 0.29)' ps='2*int((nf+2)/2) * (W/nf + 0.29)'
+ nrd='0.29 / W' nrs='0.29 / W' sa=0 sb=0 sd=0 mult=1 m=1 
XM23 vom vop nandp VSS sky130_fd_pr__nfet_01v8 L=0.15 W=0.65 nf=1 ad='int((nf+1)/2) * W/nf * 0.29' as='int((nf+2)/2) * W/nf * 0.29'
+ pd='2*int((nf+1)/2) * (W/nf + 0.29)' ps='2*int((nf+2)/2) * (W/nf + 0.29)' nrd='0.29 / W' nrs='0.29 / W'
+ sa=0 sb=0 sd=0 mult=1 m=1 
XM25 vcompm_buf vcompmb VSS VSS sky130_fd_pr__nfet_01v8 L=0.15 W=0.65 nf=1 ad='int((nf+1)/2) * W/nf * 0.29'
+ as='int((nf+2)/2) * W/nf * 0.29' pd='2*int((nf+1)/2) * (W/nf + 0.29)' ps='2*int((nf+2)/2) * (W/nf + 0.29)'
+ nrd='0.29 / W' nrs='0.29 / W' sa=0 sb=0 sd=0 mult=1 m=1 
XM26 vcompp_buf vcomppb VSS VSS sky130_fd_pr__nfet_01v8 L=0.15 W=0.65 nf=1 ad='int((nf+1)/2) * W/nf * 0.29'
+ as='int((nf+2)/2) * W/nf * 0.29' pd='2*int((nf+1)/2) * (W/nf + 0.29)' ps='2*int((nf+2)/2) * (W/nf + 0.29)'
+ nrd='0.29 / W' nrs='0.29 / W' sa=0 sb=0 sd=0 mult=1 m=1 
XM27 vcompp_buf vcomppb VDD VDD sky130_fd_pr__pfet_01v8_hvt L=0.15 W=1 nf=1 ad='int((nf+1)/2) * W/nf * 0.29'
+ as='int((nf+2)/2) * W/nf * 0.29' pd='2*int((nf+1)/2) * (W/nf + 0.29)' ps='2*int((nf+2)/2) * (W/nf + 0.29)'
+ nrd='0.29 / W' nrs='0.29 / W' sa=0 sb=0 sd=0 mult=1 m=1 
XM4 ibiasp ibiasp VDD VDD sky130_fd_pr__pfet_01v8 L=2 W=1 nf=1 ad='int((nf+1)/2) * W/nf * 0.29' as='int((nf+2)/2) * W/nf * 0.29'
+ pd='2*int((nf+1)/2) * (W/nf + 0.29)' ps='2*int((nf+2)/2) * (W/nf + 0.29)' nrd='0.29 / W' nrs='0.29 / W'
+ sa=0 sb=0 sd=0 mult=2 m=2 
XM2 vlatchm vip vtailp VDD sky130_fd_pr__pfet_01v8_lvt L=1 W=2 nf=1 ad='int((nf+1)/2) * W/nf * 0.29'
+ as='int((nf+2)/2) * W/nf * 0.29' pd='2*int((nf+1)/2) * (W/nf + 0.29)' ps='2*int((nf+2)/2) * (W/nf + 0.29)'
+ nrd='0.29 / W' nrs='0.29 / W' sa=0 sb=0 sd=0 mult=8 m=8 
XM1 vlatchp vim vtailp VDD sky130_fd_pr__pfet_01v8_lvt L=1 W=2 nf=1 ad='int((nf+1)/2) * W/nf * 0.29'
+ as='int((nf+2)/2) * W/nf * 0.29' pd='2*int((nf+1)/2) * (W/nf + 0.29)' ps='2*int((nf+2)/2) * (W/nf + 0.29)'
+ nrd='0.29 / W' nrs='0.29 / W' sa=0 sb=0 sd=0 mult=8 m=8 
XM32 vlatchp clk vlatchm VDD sky130_fd_pr__pfet_01v8_lvt L=0.35 W=1 nf=1 ad='int((nf+1)/2) * W/nf * 0.29'
+ as='int((nf+2)/2) * W/nf * 0.29' pd='2*int((nf+1)/2) * (W/nf + 0.29)' ps='2*int((nf+2)/2) * (W/nf + 0.29)'
+ nrd='0.29 / W' nrs='0.29 / W' sa=0 sb=0 sd=0 mult=7 m=7 
XM16 vtailp ibiasp VDD VDD sky130_fd_pr__pfet_01v8 L=2 W=1 nf=1 ad='int((nf+1)/2) * W/nf * 0.29' as='int((nf+2)/2) * W/nf * 0.29'
+ pd='2*int((nf+1)/2) * (W/nf + 0.29)' ps='2*int((nf+2)/2) * (W/nf + 0.29)' nrd='0.29 / W' nrs='0.29 / W'
+ sa=0 sb=0 sd=0 mult=2 m=2 
XM12 vlatchp vlatchm VSS VSS sky130_fd_pr__nfet_01v8 L=0.3 W=1 nf=1 ad='int((nf+1)/2) * W/nf * 0.29'
+ as='int((nf+2)/2) * W/nf * 0.29' pd='2*int((nf+1)/2) * (W/nf + 0.29)' ps='2*int((nf+2)/2) * (W/nf + 0.29)'
+ nrd='0.29 / W' nrs='0.29 / W' sa=0 sb=0 sd=0 mult=2 m=2 
XM17 vcompp clk vlatchp VSS sky130_fd_pr__nfet_01v8 L=0.3 W=1 nf=1 ad='int((nf+1)/2) * W/nf * 0.29' as='int((nf+2)/2) * W/nf * 0.29'
+ pd='2*int((nf+1)/2) * (W/nf + 0.29)' ps='2*int((nf+2)/2) * (W/nf + 0.29)' nrd='0.29 / W' nrs='0.29 / W'
+ sa=0 sb=0 sd=0 mult=1 m=1 
XM28 vcompm clk vlatchm VSS sky130_fd_pr__nfet_01v8 L=0.3 W=1 nf=1 ad='int((nf+1)/2) * W/nf * 0.29' as='int((nf+2)/2) * W/nf * 0.29'
+ pd='2*int((nf+1)/2) * (W/nf + 0.29)' ps='2*int((nf+2)/2) * (W/nf + 0.29)' nrd='0.29 / W' nrs='0.29 / W'
+ sa=0 sb=0 sd=0 mult=1 m=1 
XM24 vcompm_buf vcompmb VDD VDD sky130_fd_pr__pfet_01v8_hvt L=0.15 W=1 nf=1 ad='int((nf+1)/2) * W/nf * 0.29'
+ as='int((nf+2)/2) * W/nf * 0.29' pd='2*int((nf+1)/2) * (W/nf + 0.29)' ps='2*int((nf+2)/2) * (W/nf + 0.29)'
+ nrd='0.29 / W' nrs='0.29 / W' sa=0 sb=0 sd=0 mult=1 m=1 
XM10 vcompmb vcompm VDD VDD sky130_fd_pr__pfet_01v8_hvt L=0.15 W=1 nf=1 ad='int((nf+1)/2) * W/nf * 0.29'
+ as='int((nf+2)/2) * W/nf * 0.29' pd='2*int((nf+1)/2) * (W/nf + 0.29)' ps='2*int((nf+2)/2) * (W/nf + 0.29)'
+ nrd='0.29 / W' nrs='0.29 / W' sa=0 sb=0 sd=0 mult=1 m=1 
XM29 vcompm VDD VDD VDD sky130_fd_pr__pfet_01v8 L=1 W=2 nf=1 ad='int((nf+1)/2) * W/nf * 0.29' as='int((nf+2)/2) * W/nf * 0.29'
+ pd='2*int((nf+1)/2) * (W/nf + 0.29)' ps='2*int((nf+2)/2) * (W/nf + 0.29)' nrd='0.29 / W' nrs='0.29 / W'
+ sa=0 sb=0 sd=0 mult=1 m=1 