* NGSPICE file created from analog_top_level_flat.ext - technology: sky130A

.subckt sky130_fd_pr__cap_mim_m3_1_KBZ9JD VSUBS m3_n1150_n1100# c1_n1050_n1000#
X0 c1_n1050_n1000# m3_n1150_n1100# sky130_fd_pr__cap_mim_m3_1 l=1e+07u w=1e+07u
.ends

.subckt sky130_fd_pr__cap_mim_m3_1_VQCCU2 VSUBS c1_n250_n1000# m3_n350_n1100#
X0 c1_n250_n1000# m3_n350_n1100# sky130_fd_pr__cap_mim_m3_1 l=1e+07u w=2e+06u
.ends

.subckt sky130_fd_pr__nfet_01v8_lvt_ZYX5GY VSUBS a_n5570_n355# a_n480_n355# a_1498_n300#
+ a_2516_n300# a_3534_n300# a_1556_n355# a_4552_n300# a_538_n355# a_2574_n355# a_n5628_n300#
+ a_n538_n300# a_n1556_n300# a_5570_n300# a_n1498_n355# a_3592_n355# a_n2516_n355#
+ a_4610_n355# a_n2574_n300# a_480_n300# a_n3534_n355# a_n3592_n300# a_n4610_n300#
+ a_n4552_n355#
X0 a_n4610_n300# a_n5570_n355# a_n5628_n300# VSUBS sky130_fd_pr__nfet_01v8_lvt ad=0p pd=0u as=0p ps=0u w=3e+06u l=4.8e+06u
X1 a_1498_n300# a_538_n355# a_480_n300# VSUBS sky130_fd_pr__nfet_01v8_lvt ad=0p pd=0u as=0p ps=0u w=3e+06u l=4.8e+06u
X2 a_4552_n300# a_3592_n355# a_3534_n300# VSUBS sky130_fd_pr__nfet_01v8_lvt ad=0p pd=0u as=0p ps=0u w=3e+06u l=4.8e+06u
X3 a_n538_n300# a_n1498_n355# a_n1556_n300# VSUBS sky130_fd_pr__nfet_01v8_lvt ad=0p pd=0u as=0p ps=0u w=3e+06u l=4.8e+06u
X4 a_3534_n300# a_2574_n355# a_2516_n300# VSUBS sky130_fd_pr__nfet_01v8_lvt ad=0p pd=0u as=0p ps=0u w=3e+06u l=4.8e+06u
X5 a_n3592_n300# a_n4552_n355# a_n4610_n300# VSUBS sky130_fd_pr__nfet_01v8_lvt ad=0p pd=0u as=0p ps=0u w=3e+06u l=4.8e+06u
X6 a_2516_n300# a_1556_n355# a_1498_n300# VSUBS sky130_fd_pr__nfet_01v8_lvt ad=0p pd=0u as=0p ps=0u w=3e+06u l=4.8e+06u
X7 a_n2574_n300# a_n3534_n355# a_n3592_n300# VSUBS sky130_fd_pr__nfet_01v8_lvt ad=0p pd=0u as=0p ps=0u w=3e+06u l=4.8e+06u
X8 a_5570_n300# a_4610_n355# a_4552_n300# VSUBS sky130_fd_pr__nfet_01v8_lvt ad=0p pd=0u as=0p ps=0u w=3e+06u l=4.8e+06u
X9 a_480_n300# a_n480_n355# a_n538_n300# VSUBS sky130_fd_pr__nfet_01v8_lvt ad=0p pd=0u as=0p ps=0u w=3e+06u l=4.8e+06u
X10 a_n1556_n300# a_n2516_n355# a_n2574_n300# VSUBS sky130_fd_pr__nfet_01v8_lvt ad=0p pd=0u as=0p ps=0u w=3e+06u l=4.8e+06u
.ends

.subckt sky130_fd_pr__nfet_01v8_MCKC3T VSUBS a_n9133_n355# a_n9191_n300# a_n5061_n355#
+ a_989_n300# a_6079_n300# a_2007_n300# a_5119_n355# a_7097_n300# a_3025_n300# a_1047_n355#
+ a_n10151_n355# a_8115_n300# a_6137_n355# a_n989_n355# a_29_n355# a_4043_n300# a_2065_n355#
+ a_n29_n300# a_n5119_n300# a_9133_n300# a_7155_n355# a_n1047_n300# a_5061_n300# a_3083_n355#
+ a_n6137_n300# a_n6079_n355# a_8173_n355# a_n2007_n355# a_4101_n355# a_n2065_n300#
+ a_n7155_n300# a_n7097_n355# a_9191_n355# a_n3025_n355# a_n10209_n300# a_n3083_n300#
+ a_10151_n300# a_n8115_n355# a_n8173_n300# a_n4101_n300# a_n4043_n355#
X0 a_10151_n300# a_9191_n355# a_9133_n300# VSUBS sky130_fd_pr__nfet_01v8 ad=0p pd=0u as=0p ps=0u w=3e+06u l=4.8e+06u
X1 a_n2065_n300# a_n3025_n355# a_n3083_n300# VSUBS sky130_fd_pr__nfet_01v8 ad=0p pd=0u as=0p ps=0u w=3e+06u l=4.8e+06u
X2 a_n6137_n300# a_n7097_n355# a_n7155_n300# VSUBS sky130_fd_pr__nfet_01v8 ad=0p pd=0u as=0p ps=0u w=3e+06u l=4.8e+06u
X3 a_989_n300# a_29_n355# a_n29_n300# VSUBS sky130_fd_pr__nfet_01v8 ad=0p pd=0u as=0p ps=0u w=3e+06u l=4.8e+06u
X4 a_5061_n300# a_4101_n355# a_4043_n300# VSUBS sky130_fd_pr__nfet_01v8 ad=0p pd=0u as=0p ps=0u w=3e+06u l=4.8e+06u
X5 a_9133_n300# a_8173_n355# a_8115_n300# VSUBS sky130_fd_pr__nfet_01v8 ad=0p pd=0u as=0p ps=0u w=3e+06u l=4.8e+06u
X6 a_n1047_n300# a_n2007_n355# a_n2065_n300# VSUBS sky130_fd_pr__nfet_01v8 ad=0p pd=0u as=0p ps=0u w=3e+06u l=4.8e+06u
X7 a_n9191_n300# a_n10151_n355# a_n10209_n300# VSUBS sky130_fd_pr__nfet_01v8 ad=0p pd=0u as=0p ps=0u w=3e+06u l=4.8e+06u
X8 a_n5119_n300# a_n6079_n355# a_n6137_n300# VSUBS sky130_fd_pr__nfet_01v8 ad=0p pd=0u as=0p ps=0u w=3e+06u l=4.8e+06u
X9 a_8115_n300# a_7155_n355# a_7097_n300# VSUBS sky130_fd_pr__nfet_01v8 ad=0p pd=0u as=0p ps=0u w=3e+06u l=4.8e+06u
X10 a_n8173_n300# a_n9133_n355# a_n9191_n300# VSUBS sky130_fd_pr__nfet_01v8 ad=0p pd=0u as=0p ps=0u w=3e+06u l=4.8e+06u
X11 a_7097_n300# a_6137_n355# a_6079_n300# VSUBS sky130_fd_pr__nfet_01v8 ad=0p pd=0u as=0p ps=0u w=3e+06u l=4.8e+06u
X12 a_4043_n300# a_3083_n355# a_3025_n300# VSUBS sky130_fd_pr__nfet_01v8 ad=0p pd=0u as=0p ps=0u w=3e+06u l=4.8e+06u
X13 a_n29_n300# a_n989_n355# a_n1047_n300# VSUBS sky130_fd_pr__nfet_01v8 ad=0p pd=0u as=0p ps=0u w=3e+06u l=4.8e+06u
X14 a_n7155_n300# a_n8115_n355# a_n8173_n300# VSUBS sky130_fd_pr__nfet_01v8 ad=0p pd=0u as=0p ps=0u w=3e+06u l=4.8e+06u
X15 a_6079_n300# a_5119_n355# a_5061_n300# VSUBS sky130_fd_pr__nfet_01v8 ad=0p pd=0u as=0p ps=0u w=3e+06u l=4.8e+06u
X16 a_n4101_n300# a_n5061_n355# a_n5119_n300# VSUBS sky130_fd_pr__nfet_01v8 ad=0p pd=0u as=0p ps=0u w=3e+06u l=4.8e+06u
X17 a_3025_n300# a_2065_n355# a_2007_n300# VSUBS sky130_fd_pr__nfet_01v8 ad=0p pd=0u as=0p ps=0u w=3e+06u l=4.8e+06u
X18 a_n3083_n300# a_n4043_n355# a_n4101_n300# VSUBS sky130_fd_pr__nfet_01v8 ad=0p pd=0u as=0p ps=0u w=3e+06u l=4.8e+06u
X19 a_2007_n300# a_1047_n355# a_989_n300# VSUBS sky130_fd_pr__nfet_01v8 ad=0p pd=0u as=0p ps=0u w=3e+06u l=4.8e+06u
.ends

.subckt sky130_fd_pr__pfet_01v8_lvt_DHLX6D VSUBS a_989_n300# a_n2007_n364# a_2007_n300#
+ w_n2101_n400# a_n29_n300# a_n1047_n300# a_n2065_n300# a_1047_n364# a_n989_n364#
+ a_29_n364#
X0 a_989_n300# a_29_n364# a_n29_n300# w_n2101_n400# sky130_fd_pr__pfet_01v8_lvt ad=0p pd=0u as=0p ps=0u w=3e+06u l=4.8e+06u
X1 a_n1047_n300# a_n2007_n364# a_n2065_n300# w_n2101_n400# sky130_fd_pr__pfet_01v8_lvt ad=0p pd=0u as=0p ps=0u w=3e+06u l=4.8e+06u
X2 a_n29_n300# a_n989_n364# a_n1047_n300# w_n2101_n400# sky130_fd_pr__pfet_01v8_lvt ad=0p pd=0u as=0p ps=0u w=3e+06u l=4.8e+06u
X3 a_2007_n300# a_1047_n364# a_989_n300# w_n2101_n400# sky130_fd_pr__pfet_01v8_lvt ad=0p pd=0u as=0p ps=0u w=3e+06u l=4.8e+06u
.ends

.subckt sky130_fd_pr__pfet_01v8_MSJKJ2 VSUBS a_n1498_n364# a_3592_n364# a_1498_n300#
+ a_n6588_n364# a_n2516_n364# a_4610_n364# a_6588_n300# a_2516_n300# a_n7606_n364#
+ a_7606_n300# a_n3534_n364# a_3534_n300# w_n7700_n400# a_n4552_n364# a_4552_n300#
+ a_n5628_n300# a_n538_n300# a_n5570_n364# a_n480_n364# a_n1556_n300# a_5570_n300#
+ a_n6646_n300# a_n2574_n300# a_5628_n364# a_n7664_n300# a_480_n300# a_1556_n364#
+ a_n3592_n300# a_6646_n364# a_n4610_n300# a_2574_n364# a_538_n364#
X0 a_1498_n300# a_538_n364# a_480_n300# w_n7700_n400# sky130_fd_pr__pfet_01v8 ad=0p pd=0u as=0p ps=0u w=3e+06u l=4.8e+06u
X1 a_n4610_n300# a_n5570_n364# a_n5628_n300# w_n7700_n400# sky130_fd_pr__pfet_01v8 ad=0p pd=0u as=0p ps=0u w=3e+06u l=4.8e+06u
X2 a_7606_n300# a_6646_n364# a_6588_n300# w_n7700_n400# sky130_fd_pr__pfet_01v8 ad=0p pd=0u as=0p ps=0u w=3e+06u l=4.8e+06u
X3 a_4552_n300# a_3592_n364# a_3534_n300# w_n7700_n400# sky130_fd_pr__pfet_01v8 ad=0p pd=0u as=0p ps=0u w=3e+06u l=4.8e+06u
X4 a_n538_n300# a_n1498_n364# a_n1556_n300# w_n7700_n400# sky130_fd_pr__pfet_01v8 ad=0p pd=0u as=0p ps=0u w=3e+06u l=4.8e+06u
X5 a_6588_n300# a_5628_n364# a_5570_n300# w_n7700_n400# sky130_fd_pr__pfet_01v8 ad=0p pd=0u as=0p ps=0u w=3e+06u l=4.8e+06u
X6 a_3534_n300# a_2574_n364# a_2516_n300# w_n7700_n400# sky130_fd_pr__pfet_01v8 ad=0p pd=0u as=0p ps=0u w=3e+06u l=4.8e+06u
X7 a_n6646_n300# a_n7606_n364# a_n7664_n300# w_n7700_n400# sky130_fd_pr__pfet_01v8 ad=0p pd=0u as=0p ps=0u w=3e+06u l=4.8e+06u
X8 a_n3592_n300# a_n4552_n364# a_n4610_n300# w_n7700_n400# sky130_fd_pr__pfet_01v8 ad=0p pd=0u as=0p ps=0u w=3e+06u l=4.8e+06u
X9 a_2516_n300# a_1556_n364# a_1498_n300# w_n7700_n400# sky130_fd_pr__pfet_01v8 ad=0p pd=0u as=0p ps=0u w=3e+06u l=4.8e+06u
X10 a_n2574_n300# a_n3534_n364# a_n3592_n300# w_n7700_n400# sky130_fd_pr__pfet_01v8 ad=0p pd=0u as=0p ps=0u w=3e+06u l=4.8e+06u
X11 a_480_n300# a_n480_n364# a_n538_n300# w_n7700_n400# sky130_fd_pr__pfet_01v8 ad=0p pd=0u as=0p ps=0u w=3e+06u l=4.8e+06u
X12 a_5570_n300# a_4610_n364# a_4552_n300# w_n7700_n400# sky130_fd_pr__pfet_01v8 ad=0p pd=0u as=0p ps=0u w=3e+06u l=4.8e+06u
X13 a_n1556_n300# a_n2516_n364# a_n2574_n300# w_n7700_n400# sky130_fd_pr__pfet_01v8 ad=0p pd=0u as=0p ps=0u w=3e+06u l=4.8e+06u
X14 a_n5628_n300# a_n6588_n364# a_n6646_n300# w_n7700_n400# sky130_fd_pr__pfet_01v8 ad=0p pd=0u as=0p ps=0u w=3e+06u l=4.8e+06u
.ends

.subckt sky130_fd_pr__nfet_01v8_lvt_XH9Q8F VSUBS a_2516_109# a_3592_n1582# a_1498_n1527#
+ a_3534_n1527# a_n1498_872# a_n2516_54# a_2574_n1582# a_2516_n1527# a_2574_872# a_1556_n764#
+ a_1498_n709# a_1498_109# a_n3534_872# a_n4552_n1582# a_1556_n1582# a_538_54# a_2516_n709#
+ a_n2574_927# a_4552_927# a_n1556_109# a_3534_109# a_538_n764# a_2574_n764# a_n1498_n1582#
+ a_n3534_54# a_n3534_n1582# a_n4610_927# a_n480_54# a_3534_n709# a_n1498_n764# a_3592_n764#
+ a_n538_n1527# a_n2516_n1582# a_3592_872# a_n4552_54# a_n2516_n764# a_4552_n709#
+ a_n4552_872# a_538_872# a_1556_54# a_n3592_927# a_480_927# a_n3592_n1527# a_n2574_109#
+ a_4552_109# a_n538_n709# a_n3534_n764# a_n1556_n709# a_480_n1527# a_n538_927# a_n2574_n1527#
+ a_2516_927# a_n4610_109# a_n4610_n1527# a_2574_54# a_n4552_n764# a_n2574_n709# a_n1556_n1527#
+ a_n480_872# a_480_n709# a_1556_872# a_1498_927# a_3592_54# a_n3592_109# a_480_109#
+ a_n3592_n709# a_n480_n1582# a_n1498_54# a_n480_n764# a_538_n1582# a_4552_n1527#
+ a_n2516_872# a_n1556_927# a_3534_927# a_n538_109# a_n4610_n709#
X0 a_3534_927# a_2574_872# a_2516_927# VSUBS sky130_fd_pr__nfet_01v8_lvt ad=0p pd=0u as=0p ps=0u w=3e+06u l=4.8e+06u
X1 a_1498_n709# a_538_n764# a_480_n709# VSUBS sky130_fd_pr__nfet_01v8_lvt ad=0p pd=0u as=0p ps=0u w=3e+06u l=4.8e+06u
X2 a_n1556_n1527# a_n2516_n1582# a_n2574_n1527# VSUBS sky130_fd_pr__nfet_01v8_lvt ad=0p pd=0u as=0p ps=0u w=3e+06u l=4.8e+06u
X3 a_4552_n709# a_3592_n764# a_3534_n709# VSUBS sky130_fd_pr__nfet_01v8_lvt ad=0p pd=0u as=0p ps=0u w=3e+06u l=4.8e+06u
X4 a_n2574_n1527# a_n3534_n1582# a_n3592_n1527# VSUBS sky130_fd_pr__nfet_01v8_lvt ad=0p pd=0u as=0p ps=0u w=3e+06u l=4.8e+06u
X5 a_2516_927# a_1556_872# a_1498_927# VSUBS sky130_fd_pr__nfet_01v8_lvt ad=0p pd=0u as=0p ps=0u w=3e+06u l=4.8e+06u
X6 a_n3592_109# a_n4552_54# a_n4610_109# VSUBS sky130_fd_pr__nfet_01v8_lvt ad=0p pd=0u as=0p ps=0u w=3e+06u l=4.8e+06u
X7 a_480_109# a_n480_54# a_n538_109# VSUBS sky130_fd_pr__nfet_01v8_lvt ad=0p pd=0u as=0p ps=0u w=3e+06u l=4.8e+06u
X8 a_n3592_n1527# a_n4552_n1582# a_n4610_n1527# VSUBS sky130_fd_pr__nfet_01v8_lvt ad=0p pd=0u as=0p ps=0u w=3e+06u l=4.8e+06u
X9 a_n538_n709# a_n1498_n764# a_n1556_n709# VSUBS sky130_fd_pr__nfet_01v8_lvt ad=0p pd=0u as=0p ps=0u w=3e+06u l=4.8e+06u
X10 a_n538_109# a_n1498_54# a_n1556_109# VSUBS sky130_fd_pr__nfet_01v8_lvt ad=0p pd=0u as=0p ps=0u w=3e+06u l=4.8e+06u
X11 a_n2574_109# a_n3534_54# a_n3592_109# VSUBS sky130_fd_pr__nfet_01v8_lvt ad=0p pd=0u as=0p ps=0u w=3e+06u l=4.8e+06u
X12 a_3534_n709# a_2574_n764# a_2516_n709# VSUBS sky130_fd_pr__nfet_01v8_lvt ad=0p pd=0u as=0p ps=0u w=3e+06u l=4.8e+06u
X13 a_n3592_927# a_n4552_872# a_n4610_927# VSUBS sky130_fd_pr__nfet_01v8_lvt ad=0p pd=0u as=0p ps=0u w=3e+06u l=4.8e+06u
X14 a_480_927# a_n480_872# a_n538_927# VSUBS sky130_fd_pr__nfet_01v8_lvt ad=0p pd=0u as=0p ps=0u w=3e+06u l=4.8e+06u
X15 a_n1556_109# a_n2516_54# a_n2574_109# VSUBS sky130_fd_pr__nfet_01v8_lvt ad=0p pd=0u as=0p ps=0u w=3e+06u l=4.8e+06u
X16 a_480_n1527# a_n480_n1582# a_n538_n1527# VSUBS sky130_fd_pr__nfet_01v8_lvt ad=0p pd=0u as=0p ps=0u w=3e+06u l=4.8e+06u
X17 a_n3592_n709# a_n4552_n764# a_n4610_n709# VSUBS sky130_fd_pr__nfet_01v8_lvt ad=0p pd=0u as=0p ps=0u w=3e+06u l=4.8e+06u
X18 a_2516_n709# a_1556_n764# a_1498_n709# VSUBS sky130_fd_pr__nfet_01v8_lvt ad=0p pd=0u as=0p ps=0u w=3e+06u l=4.8e+06u
X19 a_n538_927# a_n1498_872# a_n1556_927# VSUBS sky130_fd_pr__nfet_01v8_lvt ad=0p pd=0u as=0p ps=0u w=3e+06u l=4.8e+06u
X20 a_n2574_927# a_n3534_872# a_n3592_927# VSUBS sky130_fd_pr__nfet_01v8_lvt ad=0p pd=0u as=0p ps=0u w=3e+06u l=4.8e+06u
X21 a_n538_n1527# a_n1498_n1582# a_n1556_n1527# VSUBS sky130_fd_pr__nfet_01v8_lvt ad=0p pd=0u as=0p ps=0u w=3e+06u l=4.8e+06u
X22 a_1498_n1527# a_538_n1582# a_480_n1527# VSUBS sky130_fd_pr__nfet_01v8_lvt ad=0p pd=0u as=0p ps=0u w=3e+06u l=4.8e+06u
X23 a_2516_n1527# a_1556_n1582# a_1498_n1527# VSUBS sky130_fd_pr__nfet_01v8_lvt ad=0p pd=0u as=0p ps=0u w=3e+06u l=4.8e+06u
X24 a_n1556_927# a_n2516_872# a_n2574_927# VSUBS sky130_fd_pr__nfet_01v8_lvt ad=0p pd=0u as=0p ps=0u w=3e+06u l=4.8e+06u
X25 a_n2574_n709# a_n3534_n764# a_n3592_n709# VSUBS sky130_fd_pr__nfet_01v8_lvt ad=0p pd=0u as=0p ps=0u w=3e+06u l=4.8e+06u
X26 a_1498_109# a_538_54# a_480_109# VSUBS sky130_fd_pr__nfet_01v8_lvt ad=0p pd=0u as=0p ps=0u w=3e+06u l=4.8e+06u
X27 a_4552_109# a_3592_54# a_3534_109# VSUBS sky130_fd_pr__nfet_01v8_lvt ad=0p pd=0u as=0p ps=0u w=3e+06u l=4.8e+06u
X28 a_480_n709# a_n480_n764# a_n538_n709# VSUBS sky130_fd_pr__nfet_01v8_lvt ad=0p pd=0u as=0p ps=0u w=3e+06u l=4.8e+06u
X29 a_3534_n1527# a_2574_n1582# a_2516_n1527# VSUBS sky130_fd_pr__nfet_01v8_lvt ad=0p pd=0u as=0p ps=0u w=3e+06u l=4.8e+06u
X30 a_3534_109# a_2574_54# a_2516_109# VSUBS sky130_fd_pr__nfet_01v8_lvt ad=0p pd=0u as=0p ps=0u w=3e+06u l=4.8e+06u
X31 a_4552_n1527# a_3592_n1582# a_3534_n1527# VSUBS sky130_fd_pr__nfet_01v8_lvt ad=0p pd=0u as=0p ps=0u w=3e+06u l=4.8e+06u
X32 a_n1556_n709# a_n2516_n764# a_n2574_n709# VSUBS sky130_fd_pr__nfet_01v8_lvt ad=0p pd=0u as=0p ps=0u w=3e+06u l=4.8e+06u
X33 a_2516_109# a_1556_54# a_1498_109# VSUBS sky130_fd_pr__nfet_01v8_lvt ad=0p pd=0u as=0p ps=0u w=3e+06u l=4.8e+06u
X34 a_1498_927# a_538_872# a_480_927# VSUBS sky130_fd_pr__nfet_01v8_lvt ad=0p pd=0u as=0p ps=0u w=3e+06u l=4.8e+06u
X35 a_4552_927# a_3592_872# a_3534_927# VSUBS sky130_fd_pr__nfet_01v8_lvt ad=0p pd=0u as=0p ps=0u w=3e+06u l=4.8e+06u
.ends

.subckt sky130_fd_pr__pfet_01v8_lvt_V2JKJ2 VSUBS w_n8209_n400# a_7155_n364# a_3083_n364#
+ a_989_n300# a_n6079_n364# a_n2007_n364# a_4101_n364# a_6079_n300# a_2007_n300# a_n7097_n364#
+ a_n3025_n364# a_7097_n300# a_3025_n300# a_n8115_n364# a_8115_n300# a_n4043_n364#
+ a_4043_n300# a_n29_n300# a_n5119_n300# a_n5061_n364# a_n1047_n300# a_5061_n300#
+ a_n6137_n300# a_n2065_n300# a_5119_n364# a_n7155_n300# a_1047_n364# a_n3083_n300#
+ a_6137_n364# a_n8173_n300# a_n989_n364# a_29_n364# a_n4101_n300# a_2065_n364#
X0 a_n6137_n300# a_n7097_n364# a_n7155_n300# w_n8209_n400# sky130_fd_pr__pfet_01v8_lvt ad=0p pd=0u as=0p ps=0u w=3e+06u l=4.8e+06u
X1 a_989_n300# a_29_n364# a_n29_n300# w_n8209_n400# sky130_fd_pr__pfet_01v8_lvt ad=0p pd=0u as=0p ps=0u w=3e+06u l=4.8e+06u
X2 a_5061_n300# a_4101_n364# a_4043_n300# w_n8209_n400# sky130_fd_pr__pfet_01v8_lvt ad=0p pd=0u as=0p ps=0u w=3e+06u l=4.8e+06u
X3 a_n1047_n300# a_n2007_n364# a_n2065_n300# w_n8209_n400# sky130_fd_pr__pfet_01v8_lvt ad=0p pd=0u as=0p ps=0u w=3e+06u l=4.8e+06u
X4 a_n5119_n300# a_n6079_n364# a_n6137_n300# w_n8209_n400# sky130_fd_pr__pfet_01v8_lvt ad=0p pd=0u as=0p ps=0u w=3e+06u l=4.8e+06u
X5 a_8115_n300# a_7155_n364# a_7097_n300# w_n8209_n400# sky130_fd_pr__pfet_01v8_lvt ad=0p pd=0u as=0p ps=0u w=3e+06u l=4.8e+06u
X6 a_7097_n300# a_6137_n364# a_6079_n300# w_n8209_n400# sky130_fd_pr__pfet_01v8_lvt ad=0p pd=0u as=0p ps=0u w=3e+06u l=4.8e+06u
X7 a_4043_n300# a_3083_n364# a_3025_n300# w_n8209_n400# sky130_fd_pr__pfet_01v8_lvt ad=0p pd=0u as=0p ps=0u w=3e+06u l=4.8e+06u
X8 a_n29_n300# a_n989_n364# a_n1047_n300# w_n8209_n400# sky130_fd_pr__pfet_01v8_lvt ad=0p pd=0u as=0p ps=0u w=3e+06u l=4.8e+06u
X9 a_n7155_n300# a_n8115_n364# a_n8173_n300# w_n8209_n400# sky130_fd_pr__pfet_01v8_lvt ad=0p pd=0u as=0p ps=0u w=3e+06u l=4.8e+06u
X10 a_6079_n300# a_5119_n364# a_5061_n300# w_n8209_n400# sky130_fd_pr__pfet_01v8_lvt ad=0p pd=0u as=0p ps=0u w=3e+06u l=4.8e+06u
X11 a_n4101_n300# a_n5061_n364# a_n5119_n300# w_n8209_n400# sky130_fd_pr__pfet_01v8_lvt ad=0p pd=0u as=0p ps=0u w=3e+06u l=4.8e+06u
X12 a_3025_n300# a_2065_n364# a_2007_n300# w_n8209_n400# sky130_fd_pr__pfet_01v8_lvt ad=0p pd=0u as=0p ps=0u w=3e+06u l=4.8e+06u
X13 a_n3083_n300# a_n4043_n364# a_n4101_n300# w_n8209_n400# sky130_fd_pr__pfet_01v8_lvt ad=0p pd=0u as=0p ps=0u w=3e+06u l=4.8e+06u
X14 a_2007_n300# a_1047_n364# a_989_n300# w_n8209_n400# sky130_fd_pr__pfet_01v8_lvt ad=0p pd=0u as=0p ps=0u w=3e+06u l=4.8e+06u
X15 a_n2065_n300# a_n3025_n364# a_n3083_n300# w_n8209_n400# sky130_fd_pr__pfet_01v8_lvt ad=0p pd=0u as=0p ps=0u w=3e+06u l=4.8e+06u
.ends

.subckt sky130_fd_pr__nfet_01v8_FYXD5N VSUBS a_n5061_n355# a_989_n300# a_2007_n300#
+ a_3025_n300# a_1047_n355# a_n989_n355# a_29_n355# a_4043_n300# a_2065_n355# a_n29_n300#
+ a_n5119_n300# a_n1047_n300# a_5061_n300# a_3083_n355# a_n2007_n355# a_4101_n355#
+ a_n2065_n300# a_n3025_n355# a_n3083_n300# a_n4101_n300# a_n4043_n355#
X0 a_n2065_n300# a_n3025_n355# a_n3083_n300# VSUBS sky130_fd_pr__nfet_01v8 ad=0p pd=0u as=0p ps=0u w=3e+06u l=4.8e+06u
X1 a_989_n300# a_29_n355# a_n29_n300# VSUBS sky130_fd_pr__nfet_01v8 ad=0p pd=0u as=0p ps=0u w=3e+06u l=4.8e+06u
X2 a_5061_n300# a_4101_n355# a_4043_n300# VSUBS sky130_fd_pr__nfet_01v8 ad=0p pd=0u as=0p ps=0u w=3e+06u l=4.8e+06u
X3 a_n1047_n300# a_n2007_n355# a_n2065_n300# VSUBS sky130_fd_pr__nfet_01v8 ad=0p pd=0u as=0p ps=0u w=3e+06u l=4.8e+06u
X4 a_4043_n300# a_3083_n355# a_3025_n300# VSUBS sky130_fd_pr__nfet_01v8 ad=0p pd=0u as=0p ps=0u w=3e+06u l=4.8e+06u
X5 a_n29_n300# a_n989_n355# a_n1047_n300# VSUBS sky130_fd_pr__nfet_01v8 ad=0p pd=0u as=0p ps=0u w=3e+06u l=4.8e+06u
X6 a_n4101_n300# a_n5061_n355# a_n5119_n300# VSUBS sky130_fd_pr__nfet_01v8 ad=0p pd=0u as=0p ps=0u w=3e+06u l=4.8e+06u
X7 a_3025_n300# a_2065_n355# a_2007_n300# VSUBS sky130_fd_pr__nfet_01v8 ad=0p pd=0u as=0p ps=0u w=3e+06u l=4.8e+06u
X8 a_n3083_n300# a_n4043_n355# a_n4101_n300# VSUBS sky130_fd_pr__nfet_01v8 ad=0p pd=0u as=0p ps=0u w=3e+06u l=4.8e+06u
X9 a_2007_n300# a_1047_n355# a_989_n300# VSUBS sky130_fd_pr__nfet_01v8 ad=0p pd=0u as=0p ps=0u w=3e+06u l=4.8e+06u
.ends

.subckt sky130_fd_pr__nfet_01v8_J5YDRX VSUBS a_n10151_54# a_989_109# a_n8173_n709#
+ a_n4101_n709# a_3083_54# a_7155_54# a_n6137_109# a_8115_109# a_n1047_109# a_3025_109#
+ a_5119_n764# a_n9191_n709# a_8173_54# a_1047_n764# a_n6079_54# a_7097_109# a_n10151_n764#
+ a_989_n709# a_4101_54# a_n989_n764# a_6137_n764# a_n2007_54# a_29_n764# a_2007_n709#
+ a_6079_n709# a_n7155_109# a_9133_109# a_2065_n764# a_9191_54# a_n2065_109# a_4043_109#
+ a_7155_n764# a_n7097_54# a_n989_54# a_3025_n709# a_7097_n709# a_3083_n764# a_n3025_54#
+ a_n4101_109# a_n6079_n764# a_8173_n764# a_8115_n709# a_n2007_n764# a_4101_n764#
+ a_4043_n709# a_10151_109# a_n5119_n709# a_n29_n709# a_n8115_54# a_n4043_54# a_n8173_109#
+ a_n29_109# a_n7097_n764# a_9191_n764# a_9133_n709# a_n3025_n764# a_n1047_n709# a_1047_54#
+ a_5119_54# a_n3083_109# a_5061_109# a_5061_n709# a_n8115_n764# a_n5119_109# a_n6137_n709#
+ a_n4043_n764# a_n2065_n709# a_n9133_54# a_n5061_54# a_2007_109# a_2065_54# a_6137_54#
+ a_n10209_109# a_n9133_n764# a_n7155_n709# a_29_54# a_n9191_109# a_6079_109# a_n5061_n764#
+ a_n10209_n709# a_n3083_n709# a_10151_n709#
X0 a_n2065_n709# a_n3025_n764# a_n3083_n709# VSUBS sky130_fd_pr__nfet_01v8 ad=0p pd=0u as=0p ps=0u w=3e+06u l=4.8e+06u
X1 a_n5119_109# a_n6079_54# a_n6137_109# VSUBS sky130_fd_pr__nfet_01v8 ad=0p pd=0u as=0p ps=0u w=3e+06u l=4.8e+06u
X2 a_n6137_n709# a_n7097_n764# a_n7155_n709# VSUBS sky130_fd_pr__nfet_01v8 ad=0p pd=0u as=0p ps=0u w=3e+06u l=4.8e+06u
X3 a_989_n709# a_29_n764# a_n29_n709# VSUBS sky130_fd_pr__nfet_01v8 ad=0p pd=0u as=0p ps=0u w=3e+06u l=4.8e+06u
X4 a_5061_n709# a_4101_n764# a_4043_n709# VSUBS sky130_fd_pr__nfet_01v8 ad=0p pd=0u as=0p ps=0u w=3e+06u l=4.8e+06u
X5 a_n7155_109# a_n8115_54# a_n8173_109# VSUBS sky130_fd_pr__nfet_01v8 ad=0p pd=0u as=0p ps=0u w=3e+06u l=4.8e+06u
X6 a_989_109# a_29_54# a_n29_109# VSUBS sky130_fd_pr__nfet_01v8 ad=0p pd=0u as=0p ps=0u w=3e+06u l=4.8e+06u
X7 a_9133_n709# a_8173_n764# a_8115_n709# VSUBS sky130_fd_pr__nfet_01v8 ad=0p pd=0u as=0p ps=0u w=3e+06u l=4.8e+06u
X8 a_n4101_109# a_n5061_54# a_n5119_109# VSUBS sky130_fd_pr__nfet_01v8 ad=0p pd=0u as=0p ps=0u w=3e+06u l=4.8e+06u
X9 a_n1047_n709# a_n2007_n764# a_n2065_n709# VSUBS sky130_fd_pr__nfet_01v8 ad=0p pd=0u as=0p ps=0u w=3e+06u l=4.8e+06u
X10 a_n3083_109# a_n4043_54# a_n4101_109# VSUBS sky130_fd_pr__nfet_01v8 ad=0p pd=0u as=0p ps=0u w=3e+06u l=4.8e+06u
X11 a_n9191_n709# a_n10151_n764# a_n10209_n709# VSUBS sky130_fd_pr__nfet_01v8 ad=0p pd=0u as=0p ps=0u w=3e+06u l=4.8e+06u
X12 a_n5119_n709# a_n6079_n764# a_n6137_n709# VSUBS sky130_fd_pr__nfet_01v8 ad=0p pd=0u as=0p ps=0u w=3e+06u l=4.8e+06u
X13 a_8115_n709# a_7155_n764# a_7097_n709# VSUBS sky130_fd_pr__nfet_01v8 ad=0p pd=0u as=0p ps=0u w=3e+06u l=4.8e+06u
X14 a_n2065_109# a_n3025_54# a_n3083_109# VSUBS sky130_fd_pr__nfet_01v8 ad=0p pd=0u as=0p ps=0u w=3e+06u l=4.8e+06u
X15 a_10151_109# a_9191_54# a_9133_109# VSUBS sky130_fd_pr__nfet_01v8 ad=0p pd=0u as=0p ps=0u w=3e+06u l=4.8e+06u
X16 a_n29_109# a_n989_54# a_n1047_109# VSUBS sky130_fd_pr__nfet_01v8 ad=0p pd=0u as=0p ps=0u w=3e+06u l=4.8e+06u
X17 a_n1047_109# a_n2007_54# a_n2065_109# VSUBS sky130_fd_pr__nfet_01v8 ad=0p pd=0u as=0p ps=0u w=3e+06u l=4.8e+06u
X18 a_9133_109# a_8173_54# a_8115_109# VSUBS sky130_fd_pr__nfet_01v8 ad=0p pd=0u as=0p ps=0u w=3e+06u l=4.8e+06u
X19 a_n8173_n709# a_n9133_n764# a_n9191_n709# VSUBS sky130_fd_pr__nfet_01v8 ad=0p pd=0u as=0p ps=0u w=3e+06u l=4.8e+06u
X20 a_7097_n709# a_6137_n764# a_6079_n709# VSUBS sky130_fd_pr__nfet_01v8 ad=0p pd=0u as=0p ps=0u w=3e+06u l=4.8e+06u
X21 a_4043_n709# a_3083_n764# a_3025_n709# VSUBS sky130_fd_pr__nfet_01v8 ad=0p pd=0u as=0p ps=0u w=3e+06u l=4.8e+06u
X22 a_8115_109# a_7155_54# a_7097_109# VSUBS sky130_fd_pr__nfet_01v8 ad=0p pd=0u as=0p ps=0u w=3e+06u l=4.8e+06u
X23 a_n29_n709# a_n989_n764# a_n1047_n709# VSUBS sky130_fd_pr__nfet_01v8 ad=0p pd=0u as=0p ps=0u w=3e+06u l=4.8e+06u
X24 a_n7155_n709# a_n8115_n764# a_n8173_n709# VSUBS sky130_fd_pr__nfet_01v8 ad=0p pd=0u as=0p ps=0u w=3e+06u l=4.8e+06u
X25 a_6079_n709# a_5119_n764# a_5061_n709# VSUBS sky130_fd_pr__nfet_01v8 ad=0p pd=0u as=0p ps=0u w=3e+06u l=4.8e+06u
X26 a_7097_109# a_6137_54# a_6079_109# VSUBS sky130_fd_pr__nfet_01v8 ad=0p pd=0u as=0p ps=0u w=3e+06u l=4.8e+06u
X27 a_n4101_n709# a_n5061_n764# a_n5119_n709# VSUBS sky130_fd_pr__nfet_01v8 ad=0p pd=0u as=0p ps=0u w=3e+06u l=4.8e+06u
X28 a_3025_n709# a_2065_n764# a_2007_n709# VSUBS sky130_fd_pr__nfet_01v8 ad=0p pd=0u as=0p ps=0u w=3e+06u l=4.8e+06u
X29 a_4043_109# a_3083_54# a_3025_109# VSUBS sky130_fd_pr__nfet_01v8 ad=0p pd=0u as=0p ps=0u w=3e+06u l=4.8e+06u
X30 a_6079_109# a_5119_54# a_5061_109# VSUBS sky130_fd_pr__nfet_01v8 ad=0p pd=0u as=0p ps=0u w=3e+06u l=4.8e+06u
X31 a_3025_109# a_2065_54# a_2007_109# VSUBS sky130_fd_pr__nfet_01v8 ad=0p pd=0u as=0p ps=0u w=3e+06u l=4.8e+06u
X32 a_n3083_n709# a_n4043_n764# a_n4101_n709# VSUBS sky130_fd_pr__nfet_01v8 ad=0p pd=0u as=0p ps=0u w=3e+06u l=4.8e+06u
X33 a_2007_n709# a_1047_n764# a_989_n709# VSUBS sky130_fd_pr__nfet_01v8 ad=0p pd=0u as=0p ps=0u w=3e+06u l=4.8e+06u
X34 a_5061_109# a_4101_54# a_4043_109# VSUBS sky130_fd_pr__nfet_01v8 ad=0p pd=0u as=0p ps=0u w=3e+06u l=4.8e+06u
X35 a_n9191_109# a_n10151_54# a_n10209_109# VSUBS sky130_fd_pr__nfet_01v8 ad=0p pd=0u as=0p ps=0u w=3e+06u l=4.8e+06u
X36 a_n6137_109# a_n7097_54# a_n7155_109# VSUBS sky130_fd_pr__nfet_01v8 ad=0p pd=0u as=0p ps=0u w=3e+06u l=4.8e+06u
X37 a_10151_n709# a_9191_n764# a_9133_n709# VSUBS sky130_fd_pr__nfet_01v8 ad=0p pd=0u as=0p ps=0u w=3e+06u l=4.8e+06u
X38 a_2007_109# a_1047_54# a_989_109# VSUBS sky130_fd_pr__nfet_01v8 ad=0p pd=0u as=0p ps=0u w=3e+06u l=4.8e+06u
X39 a_n8173_109# a_n9133_54# a_n9191_109# VSUBS sky130_fd_pr__nfet_01v8 ad=0p pd=0u as=0p ps=0u w=3e+06u l=4.8e+06u
.ends

.subckt sky130_fd_pr__pfet_01v8_lvt_SH2KEA VSUBS a_3083_n364# a_989_n300# a_n6079_n364#
+ a_n2007_n364# a_4101_n364# a_6079_n300# a_2007_n300# a_n7097_n364# a_n3025_n364#
+ a_7097_n300# a_3025_n300# a_n4043_n364# a_4043_n300# w_n7191_n400# a_n29_n300# a_n5119_n300#
+ a_n5061_n364# a_n1047_n300# a_5061_n300# a_n6137_n300# a_n2065_n300# a_5119_n364#
+ a_n7155_n300# a_1047_n364# a_n3083_n300# a_6137_n364# a_n989_n364# a_29_n364# a_n4101_n300#
+ a_2065_n364#
X0 a_n6137_n300# a_n7097_n364# a_n7155_n300# w_n7191_n400# sky130_fd_pr__pfet_01v8_lvt ad=0p pd=0u as=0p ps=0u w=3e+06u l=4.8e+06u
X1 a_989_n300# a_29_n364# a_n29_n300# w_n7191_n400# sky130_fd_pr__pfet_01v8_lvt ad=0p pd=0u as=0p ps=0u w=3e+06u l=4.8e+06u
X2 a_5061_n300# a_4101_n364# a_4043_n300# w_n7191_n400# sky130_fd_pr__pfet_01v8_lvt ad=0p pd=0u as=0p ps=0u w=3e+06u l=4.8e+06u
X3 a_n1047_n300# a_n2007_n364# a_n2065_n300# w_n7191_n400# sky130_fd_pr__pfet_01v8_lvt ad=0p pd=0u as=0p ps=0u w=3e+06u l=4.8e+06u
X4 a_n5119_n300# a_n6079_n364# a_n6137_n300# w_n7191_n400# sky130_fd_pr__pfet_01v8_lvt ad=0p pd=0u as=0p ps=0u w=3e+06u l=4.8e+06u
X5 a_7097_n300# a_6137_n364# a_6079_n300# w_n7191_n400# sky130_fd_pr__pfet_01v8_lvt ad=0p pd=0u as=0p ps=0u w=3e+06u l=4.8e+06u
X6 a_4043_n300# a_3083_n364# a_3025_n300# w_n7191_n400# sky130_fd_pr__pfet_01v8_lvt ad=0p pd=0u as=0p ps=0u w=3e+06u l=4.8e+06u
X7 a_n29_n300# a_n989_n364# a_n1047_n300# w_n7191_n400# sky130_fd_pr__pfet_01v8_lvt ad=0p pd=0u as=0p ps=0u w=3e+06u l=4.8e+06u
X8 a_6079_n300# a_5119_n364# a_5061_n300# w_n7191_n400# sky130_fd_pr__pfet_01v8_lvt ad=0p pd=0u as=0p ps=0u w=3e+06u l=4.8e+06u
X9 a_n4101_n300# a_n5061_n364# a_n5119_n300# w_n7191_n400# sky130_fd_pr__pfet_01v8_lvt ad=0p pd=0u as=0p ps=0u w=3e+06u l=4.8e+06u
X10 a_3025_n300# a_2065_n364# a_2007_n300# w_n7191_n400# sky130_fd_pr__pfet_01v8_lvt ad=0p pd=0u as=0p ps=0u w=3e+06u l=4.8e+06u
X11 a_n3083_n300# a_n4043_n364# a_n4101_n300# w_n7191_n400# sky130_fd_pr__pfet_01v8_lvt ad=0p pd=0u as=0p ps=0u w=3e+06u l=4.8e+06u
X12 a_2007_n300# a_1047_n364# a_989_n300# w_n7191_n400# sky130_fd_pr__pfet_01v8_lvt ad=0p pd=0u as=0p ps=0u w=3e+06u l=4.8e+06u
X13 a_n2065_n300# a_n3025_n364# a_n3083_n300# w_n7191_n400# sky130_fd_pr__pfet_01v8_lvt ad=0p pd=0u as=0p ps=0u w=3e+06u l=4.8e+06u
.ends

.subckt se_fold_casc_wide_swing_ota VSS VDD ibiasn vo vim vip
Xsky130_fd_pr__nfet_01v8_lvt_ZYX5GY_0 VSS vcascpp vim vcascpm vtail_cascn vcascpp
+ vip vtail_cascn vip vim vcascpp vcascpp vtail_cascn vtail_cascn vim vim vip vtail_cascn
+ vcascpm vtail_cascn vip vtail_cascn vcascpp vim sky130_fd_pr__nfet_01v8_lvt_ZYX5GY
Xsky130_fd_pr__nfet_01v8_MCKC3T_0 VSS vbias3 vbias4 vbias4 vo vcascnm vcascnp vbias4
+ vmirror VSS vbias3 M8d vcascnm vbias3 vbias3 vbias3 vcascnm vbias4 vcascnp VSS VSS
+ vbias3 vo VSS vbias4 a_4604_n22232# vbias4 vbias4 vbias3 vbias4 vcascnp VSS vbias4
+ M16d vbias3 vbias3 vo M16d vbias4 a_4604_n22232# vcascnp vbias3 sky130_fd_pr__nfet_01v8_MCKC3T
Xsky130_fd_pr__nfet_01v8_lvt_ZYX5GY_1 VSS vcascpm vip vcascpp vtail_cascn vcascpm
+ vim vtail_cascn vim vip vcascpm vcascpm vtail_cascn vtail_cascn vip vip vim vtail_cascn
+ vcascpp vtail_cascn vim vtail_cascn vcascpm vip sky130_fd_pr__nfet_01v8_lvt_ZYX5GY
Xsky130_fd_pr__nfet_01v8_MCKC3T_1 VSS vbias3 vo vbias4 vmirror a_4604_n22232# vcascnm
+ vbias4 vbias4 VSS vbias3 vo a_4604_n22232# vbias3 vbias3 vbias3 a_4604_n22232# vbias4
+ vcascnm VSS VSS vbias3 vmirror VSS vbias4 vcascnp vbias4 vbias4 vbias3 vbias4 vcascnm
+ VSS vbias4 VSS vbias3 vo vmirror VSS vbias4 vcascnp vcascnm vbias3 sky130_fd_pr__nfet_01v8_MCKC3T
Xsky130_fd_pr__nfet_01v8_lvt_ZYX5GY_2 VSS vcascpm vip vcascpp vtail_cascn vcascpm
+ vim vtail_cascn vim vip vcascpm vcascpm vtail_cascn vtail_cascn vip vip vim vtail_cascn
+ vcascpp vtail_cascn vim vtail_cascn vcascpm vip sky130_fd_pr__nfet_01v8_lvt_ZYX5GY
Xsky130_fd_pr__nfet_01v8_MCKC3T_2 VSS vbias4 VSS vbias4 vbias4 vcascnm a_4604_n22232#
+ vbias4 VSS vbias4 vbias3 VSS vcascnm vbias4 vbias3 vbias3 a_4604_n22232# vbias3
+ a_4604_n22232# VSS vmirror vbias4 vbias4 VSS vbias3 vcascnp vbias4 vbias3 vbias3
+ vbias4 a_4604_n22232# vo vbias3 vmirror vbias4 VSS VSS vmirror vbias3 vcascnp vcascnp
+ vbias4 sky130_fd_pr__nfet_01v8_MCKC3T
Xsky130_fd_pr__nfet_01v8_lvt_ZYX5GY_3 VSS vcascpp vim vcascpm vtail_cascn vcascpp
+ vip vtail_cascn vip vim vcascpp vcascpp vtail_cascn vtail_cascn vim vim vip vtail_cascn
+ vcascpm vtail_cascn vip vtail_cascn vcascpp vim sky130_fd_pr__nfet_01v8_lvt_ZYX5GY
Xsky130_fd_pr__nfet_01v8_MCKC3T_3 VSS vbias3 vmirror vbias4 vbias4 vcascnp a_4604_n22232#
+ vbias4 vo VSS vbias3 vmirror vcascnp vbias3 vbias3 vbias3 vcascnp vbias4 a_4604_n22232#
+ VSS VSS vbias3 vbias4 VSS vbias4 vcascnm vbias4 vbias4 vbias3 vbias4 a_4604_n22232#
+ VSS vbias4 VSS vbias3 vmirror vbias4 VSS vbias4 vcascnm a_4604_n22232# vbias3 sky130_fd_pr__nfet_01v8_MCKC3T
Xsky130_fd_pr__nfet_01v8_MCKC3T_4 VSS vbias4 VSS vbias4 vmirror vcascnp vcascnm vbias4
+ VSS vmirror vbias3 VSS vcascnp vbias4 vbias3 vbias3 vcascnm vbias3 vcascnm VSS vo
+ vbias4 vmirror VSS vbias3 a_4604_n22232# vbias4 vbias3 vbias3 vbias4 vcascnm vbias4
+ vbias3 vo vbias4 VSS VSS vo vbias3 a_4604_n22232# a_4604_n22232# vbias4 sky130_fd_pr__nfet_01v8_MCKC3T
Xsky130_fd_pr__nfet_01v8_MCKC3T_5 VSS vbias4 VSS vbias4 vo a_4604_n22232# vcascnp
+ vbias4 VSS vo vbias3 VSS a_4604_n22232# vbias4 vbias3 vbias3 vcascnp vbias3 vcascnp
+ VSS vbias4 vbias4 vo VSS vbias3 vcascnm vbias4 vbias3 vbias3 vbias4 vcascnp vmirror
+ vbias3 M8d vbias4 VSS VSS vbias3 vbias3 vcascnm vcascnm vbias4 sky130_fd_pr__nfet_01v8_MCKC3T
Xsky130_fd_pr__nfet_01v8_MCKC3T_6 VSS vbias4 vtail_cascn vbias4 vtail_cascn VSS VSS
+ vbias4 vtail_cascn vcascnm vbias4 vtail_cascn VSS vbias4 vbias4 vbias4 VSS vbias4
+ VSS vcascnp vcascnp vbias4 vtail_cascn vcascnp vbias4 VSS vbias4 vbias4 vbias4 vbias4
+ VSS vtail_cascn vbias4 vcascnp vbias4 vtail_cascn vcascnm vcascnp vbias4 VSS VSS
+ vbias4 sky130_fd_pr__nfet_01v8_MCKC3T
Xsky130_fd_pr__nfet_01v8_MCKC3T_7 VSS vbias4 vtail_cascn vbias4 vtail_cascn VSS VSS
+ vbias4 vtail_cascn vcascnm vbias4 vtail_cascn VSS vbias4 vbias4 vbias4 VSS vbias4
+ VSS vcascnp vcascnp vbias4 vtail_cascn vcascnp vbias4 VSS vbias4 vbias4 vbias4 vbias4
+ VSS vtail_cascn vbias4 vcascnp vbias4 vtail_cascn vcascnm vcascnp vbias4 VSS VSS
+ vbias4 sky130_fd_pr__nfet_01v8_MCKC3T
Xsky130_fd_pr__nfet_01v8_MCKC3T_8 VSS vbias4 vcascnm vbias4 vcascnm VSS VSS vbias4
+ vcascnp vtail_cascn vbias4 vcascnm VSS vbias4 vbias4 vbias4 VSS vbias4 VSS vtail_cascn
+ vtail_cascn vbias4 vcascnm vtail_cascn vbias4 VSS vbias4 vbias4 vbias4 vbias4 VSS