* NGSPICE file created from analog_top_level_flat.ext - technology: sky130A

.subckt analog_top_level_flat vintp vintm vfiltp vfiltm vlowA vrefA q7A q6A q5A q4A
+ q3A q2A q1A q0A adc_clk sample vlowB vrefB q7B q6B q5B q4B q3B q2B q1B q0B adc_compA
+ adc_compB vcp vcp_sampled vpeak_sampled vpeak vse vcomp vhpf VDD VSS vincm vocm
+ vocm_filt gain_ctrl_0 gain_ctrl_1 vbiasp vbiasn peak_detector_rst vampm vampp adc_vcaparrayB
+ adc_vcaparrayA rst_n
X0 input_amplifier_0/diff_fold_casc_ota_0/vbias3 input_amplifier_0/diff_fold_casc_ota_0/M3d input_amplifier_0/diff_fold_casc_ota_0/M3d VSS sky130_fd_pr__nfet_01v8 ad=0p pd=0u as=0p ps=0u w=3e+06u l=4.8e+06u
X1 dac_8bit_1/latched_comparator_folded_0/vtailp dac_8bit_1/latched_comparator_folded_0/vtailp dac_8bit_1/latched_comparator_folded_0/vtailp VDD sky130_fd_pr__pfet_01v8 ad=0p pd=0u as=0p ps=0u w=1e+06u l=2e+06u
X2 adc_vcaparrayB dac_8bit_1/c7m sky130_fd_pr__cap_mim_m3_1 l=7e+06u w=7e+06u
X3 sample_and_hold_0/se_fold_casc_wide_swing_ota_0/vtail_cascn sample_and_hold_0/se_fold_casc_wide_swing_ota_0/vbias4 VSS VSS sky130_fd_pr__nfet_01v8 ad=0p pd=0u as=0p ps=0u w=3e+06u l=4.8e+06u
X4 vlowA VDD VDD VDD sky130_fd_pr__pfet_01v8_hvt ad=0p pd=0u as=0p ps=0u w=2e+06u l=1e+06u
X5 input_amplifier_0/diff_fold_casc_ota_1/vbias4 input_amplifier_0/diff_fold_casc_ota_1/vbias3 a_163060_n102324# VSS sky130_fd_pr__nfet_01v8 ad=0p pd=0u as=0p ps=0u w=3e+06u l=4.8e+06u
X6 VDD a_338356_n185269# a_338285_n185243# VDD sky130_fd_pr__pfet_01v8_hvt ad=0p pd=0u as=0p ps=0u w=750000u l=150000u
X7 dac_8bit_0/se_fold_casc_wide_swing_ota_0/vtail_cascn dac_8bit_0/se_fold_casc_wide_swing_ota_0/vbias4 VSS VSS sky130_fd_pr__nfet_01v8 ad=0p pd=0u as=0p ps=0u w=3e+06u l=4.8e+06u
X8 dac_8bit_0/se_fold_casc_wide_swing_ota_0/vbias3 dac_8bit_0/se_fold_casc_wide_swing_ota_0/M8d dac_8bit_0/se_fold_casc_wide_swing_ota_0/M8d VSS sky130_fd_pr__nfet_01v8 ad=0p pd=0u as=0p ps=0u w=3e+06u l=4.8e+06u
X9 VSS diff_to_se_converter_0/se_fold_casc_wide_swing_ota_0/vbias4 diff_to_se_converter_0/se_fold_casc_wide_swing_ota_0/vcascnm VSS sky130_fd_pr__nfet_01v8 ad=0p pd=0u as=0p ps=0u w=3e+06u l=4.8e+06u
X10 peak_detector_0/se_fold_casc_wide_swing_ota_1/vbias2 peak_detector_0/se_fold_casc_wide_swing_ota_1/vbias2 peak_detector_0/se_fold_casc_wide_swing_ota_1/vbias2 VSS sky130_fd_pr__nfet_01v8_lvt ad=0p pd=0u as=0p ps=0u w=3e+06u l=4.8e+06u
X11 a_242085_n122799# a_241919_n122799# VSS VSS sky130_fd_pr__nfet_01v8 ad=0p pd=0u as=0p ps=0u w=420000u l=150000u
X12 input_amplifier_0/diff_fold_casc_ota_0/M3d input_amplifier_0/diff_fold_casc_ota_0/M3d input_amplifier_0/diff_fold_casc_ota_0/vbias3 VSS sky130_fd_pr__nfet_01v8 ad=0p pd=0u as=0p ps=0u w=3e+06u l=4.8e+06u
X13 sample_and_hold_1/se_fold_casc_wide_swing_ota_0/vbias1 sample_and_hold_1/se_fold_casc_wide_swing_ota_0/vbias1 sample_and_hold_1/se_fold_casc_wide_swing_ota_0/vbias2 VSS sky130_fd_pr__nfet_01v8_lvt ad=0p pd=0u as=0p ps=0u w=3e+06u l=4.8e+06u
X14 biquad_gm_c_filter_0/gm_c_stage_0/vcmn_tail2 vocm_filt biquad_gm_c_filter_0/gm_c_stage_0/vcmcn2 VSS sky130_fd_pr__nfet_01v8 ad=0p pd=0u as=0p ps=0u w=2e+06u l=1e+06u
X15 VSS input_amplifier_0/diff_fold_casc_ota_0/vbias4 input_amplifier_0/diff_fold_casc_ota_0/vtail_casc VSS sky130_fd_pr__nfet_01v8 ad=0p pd=0u as=0p ps=0u w=3e+06u l=4.8e+06u
X16 adc_vcaparrayB dac_8bit_1/c7m sky130_fd_pr__cap_mim_m3_1 l=7e+06u w=7e+06u
X17 peak_detector_0/se_fold_casc_wide_swing_ota_0/vcascnp vpeak peak_detector_0/se_fold_casc_wide_swing_ota_0/vtail_cascp VDD sky130_fd_pr__pfet_01v8_lvt ad=0p pd=0u as=0p ps=0u w=3e+06u l=4.8e+06u
X18 adc_vcaparrayA adc_vcaparrayA sky130_fd_pr__cap_mim_m3_1 l=7e+06u w=7e+06u
X19 a_275374_n146348# sample_and_hold_0/se_fold_casc_wide_swing_ota_0/vbias4 VSS VSS sky130_fd_pr__nfet_01v8 ad=0p pd=0u as=0p ps=0u w=3e+06u l=4.8e+06u
X20 sample_and_hold_1/se_fold_casc_wide_swing_ota_0/M8d sample_and_hold_1/se_fold_casc_wide_swing_ota_0/M8d sample_and_hold_1/se_fold_casc_wide_swing_ota_0/vbias3 VSS sky130_fd_pr__nfet_01v8 ad=0p pd=0u as=0p ps=0u w=3e+06u l=4.8e+06u
X21 diff_to_se_converter_0/se_fold_casc_wide_swing_ota_0/vcascpp diff_to_se_converter_0/se_fold_casc_wide_swing_ota_0/vmirror VDD VDD sky130_fd_pr__pfet_01v8_lvt ad=0p pd=0u as=0p ps=0u w=3e+06u l=4.8e+06u
X22 comparator_0/vo1 comparator_0/vo1 comparator_0/vo1 VSS sky130_fd_pr__nfet_01v8 ad=0p pd=0u as=0p ps=0u w=1e+06u l=1e+06u
X23 VSS VSS sky130_fd_pr__cap_mim_m3_1 l=2.9e+07u w=4e+06u
X24 adc_vcaparrayB dac_8bit_1/c7m sky130_fd_pr__cap_mim_m3_1 l=7e+06u w=7e+06u
X25 input_amplifier_0/diff_fold_casc_ota_1/M2d input_amplifier_0/diff_fold_casc_ota_1/vbias1 VDD VDD sky130_fd_pr__pfet_01v8_lvt ad=0p pd=0u as=0p ps=0u w=3e+06u l=4.8e+06u
X26 sample_and_hold_1/se_fold_casc_wide_swing_ota_0/vbias2 sample_and_hold_1/se_fold_casc_wide_swing_ota_0/vbias2 sample_and_hold_1/se_fold_casc_wide_swing_ota_0/vbias2 VSS sky130_fd_pr__nfet_01v8_lvt ad=0p pd=0u as=0p ps=0u w=3e+06u l=4.8e+06u
X27 adc_vcaparrayB adc_vcaparrayB sky130_fd_pr__cap_mim_m3_1 l=7e+06u w=7e+06u
X28 sample_and_hold_0/se_fold_casc_wide_swing_ota_0/vmirror sample_and_hold_0/se_fold_casc_wide_swing_ota_0/vmirror sample_and_hold_0/se_fold_casc_wide_swing_ota_0/vmirror VDD sky130_fd_pr__pfet_01v8 ad=0p pd=0u as=0p ps=0u w=3e+06u l=4.8e+06u
X29 dac_8bit_1/vcom_buf dac_8bit_1/se_fold_casc_wide_swing_ota_0/vbias3 dac_8bit_1/se_fold_casc_wide_swing_ota_0/vcascnp VSS sky130_fd_pr__nfet_01v8 ad=0p pd=0u as=0p ps=0u w=3e+06u l=4.8e+06u
X30 peak_detector_0/verr VSS sky130_fd_pr__cap_mim_m3_1 l=2.4e+07u w=2.6e+07u
X31 VSS sample_and_hold_0/se_fold_casc_wide_swing_ota_0/vbias4 sample_and_hold_0/se_fold_casc_wide_swing_ota_0/vcascnp VSS sky130_fd_pr__nfet_01v8 ad=0p pd=0u as=0p ps=0u w=3e+06u l=4.8e+06u
X32 VSS input_amplifier_0/diff_fold_casc_ota_1/vbias4 input_amplifier_0/diff_fold_casc_ota_1/vtail_casc VSS sky130_fd_pr__nfet_01v8 ad=0p pd=0u as=0p ps=0u w=3e+06u l=4.8e+06u
X33 VDD vbiasp dac_8bit_0/ibiasn VDD sky130_fd_pr__pfet_01v8 ad=0p pd=0u as=0p ps=0u w=6e+06u l=4e+06u
X34 VSS VSS sky130_fd_pr__cap_mim_m3_1 l=1.2e+07u w=2e+06u
X35 adc_vcaparrayB dac_8bit_1/c6m sky130_fd_pr__cap_mim_m3_1 l=7e+06u w=7e+06u
X36 dac_8bit_1/se_fold_casc_wide_swing_ota_0/vbias4 dac_8bit_1/se_fold_casc_wide_swing_ota_0/vbias3 a_356329_n164260# VSS sky130_fd_pr__nfet_01v8 ad=0p pd=0u as=0p ps=0u w=3e+06u l=4.8e+06u
X37 a_228020_n140786# low_freq_pll_0/cs_ring_osc_0/vpbias a_227562_n140786# VDD sky130_fd_pr__pfet_01v8_hvt ad=0p pd=0u as=0p ps=0u w=8e+06u l=2e+06u
X38 VSS VSS sky130_fd_pr__cap_mim_m3_1 l=2.9e+07u w=4e+06u
X39 input_amplifier_0/diff_fold_casc_ota_0/M3d input_amplifier_0/diff_fold_casc_ota_0/M3d input_amplifier_0/diff_fold_casc_ota_0/vbias3 VSS sky130_fd_pr__nfet_01v8 ad=0p pd=0u as=0p ps=0u w=3e+06u l=4.8e+06u
X40 input_amplifier_0/diff_fold_casc_ota_1/vbias2 input_amplifier_0/diff_fold_casc_ota_1/vbias1 input_amplifier_0/diff_fold_casc_ota_1/vbias1 VSS sky130_fd_pr__nfet_01v8_lvt ad=0p pd=0u as=0p ps=0u w=3e+06u l=4.8e+06u
X41 VDD peak_detector_0/se_fold_casc_wide_swing_ota_1/vbias1 peak_detector_0/se_fold_casc_wide_swing_ota_1/M13d VDD sky130_fd_pr__pfet_01v8_lvt ad=0p pd=0u as=0p ps=0u w=3e+06u l=4.8e+06u
X42 peak_detector_0/verr peak_detector_0/se_fold_casc_wide_swing_ota_1/vbias3 peak_detector_0/se_fold_casc_wide_swing_ota_1/vcascnp VSS sky130_fd_pr__nfet_01v8 ad=0p pd=0u as=0p ps=0u w=3e+06u l=4.8e+06u
X43 VSS dac_8bit_1/se_fold_casc_wide_swing_ota_0/vbias4 dac_8bit_1/se_fold_casc_wide_swing_ota_0/vcascnm VSS sky130_fd_pr__nfet_01v8 ad=0p pd=0u as=0p ps=0u w=3e+06u l=4.8e+06u
X44 adc_vcaparrayB adc_vcaparrayB sky130_fd_pr__cap_mim_m3_1 l=7e+06u w=7e+06u
X45 VSS a_245481_n123343# a_245649_n123369# VSS sky130_fd_pr__nfet_01v8 ad=0p pd=0u as=0p ps=0u w=650000u l=150000u
X46 a_242526_n123369# a_242358_n123343# VSS VSS sky130_fd_pr__nfet_01v8 ad=0p pd=0u as=0p ps=0u w=640000u l=150000u
X47 input_amplifier_0/diff_fold_casc_ota_1/vcmn_casc_tail2 vocm input_amplifier_0/diff_fold_casc_ota_1/vcmcn2_casc VSS sky130_fd_pr__nfet_01v8_lvt ad=0p pd=0u as=0p ps=0u w=1e+06u l=800000u
X48 input_amplifier_0/vip2 input_amplifier_0/rst input_amplifier_0/vom1 VSS sky130_fd_pr__nfet_01v8 ad=0p pd=0u as=0p ps=0u w=1e+06u l=1e+06u
X49 adc_vcaparrayA dac_8bit_0/c7m sky130_fd_pr__cap_mim_m3_1 l=7e+06u w=7e+06u
X50 VSS VSS sky130_fd_pr__cap_mim_m3_2 l=3.1e+07u w=2e+06u
X51 adc_vcaparrayB dac_8bit_1/c5m sky130_fd_pr__cap_mim_m3_1 l=7e+06u w=7e+06u
X52 sample_and_hold_0/se_fold_casc_wide_swing_ota_0/vtail_cascn sample_and_hold_0/se_fold_casc_wide_swing_ota_0/vbias4 VSS VSS sky130_fd_pr__nfet_01v8 ad=0p pd=0u as=0p ps=0u w=3e+06u l=4.8e+06u
X53 VSS input_amplifier_0/diff_fold_casc_ota_1/vcmc_casc input_amplifier_0/diff_fold_casc_ota_1/vtail_casc VSS sky130_fd_pr__nfet_01v8 ad=0p pd=0u as=0p ps=0u w=3e+06u l=4.8e+06u
X54 dac_8bit_0/se_fold_casc_wide_swing_ota_0/vcascnp dac_8bit_0/se_fold_casc_wide_swing_ota_0/vbias4 VSS VSS sky130_fd_pr__nfet_01v8 ad=0p pd=0u as=0p ps=0u w=3e+06u l=4.8e+06u
X55 adc_vcaparrayA dac_8bit_0/c6m sky130_fd_pr__cap_mim_m3_1 l=7e+06u w=7e+06u
X56 VSS input_amplifier_0/diff_fold_casc_ota_1/vbias4 input_amplifier_0/diff_fold_casc_ota_1/vtail_casc VSS sky130_fd_pr__nfet_01v8 ad=0p pd=0u as=0p ps=0u w=3e+06u l=4.8e+06u
X57 diff_to_se_converter_0/se_fold_casc_wide_swing_ota_0/M8d diff_to_se_converter_0/se_fold_casc_wide_swing_ota_0/M8d diff_to_se_converter_0/se_fold_casc_wide_swing_ota_0/vbias3 VSS sky130_fd_pr__nfet_01v8 ad=0p pd=0u as=0p ps=0u w=3e+06u l=4.8e+06u
X58 input_amplifier_0/diff_fold_casc_ota_0/vtail_casc input_amplifier_0/diff_fold_casc_ota_0/vtail_casc input_amplifier_0/diff_fold_casc_ota_0/vtail_casc VSS sky130_fd_pr__nfet_01v8 ad=0p pd=0u as=0p ps=0u w=3e+06u l=4.8e+06u
X59 adc_vcaparrayB dac_8bit_1/c6m sky130_fd_pr__cap_mim_m3_1 l=7e+06u w=7e+06u
X60 peak_detector_0/se_fold_casc_wide_swing_ota_1/vtail_cascn peak_detector_0/se_fold_casc_wide_swing_ota_1/vbias4 VSS VSS sky130_fd_pr__nfet_01v8 ad=0p pd=0u as=0p ps=0u w=3e+06u l=4.8e+06u
X61 diff_to_se_converter_0/se_fold_casc_wide_swing_ota_0/vbias1 diff_to_se_converter_0/se_fold_casc_wide_swing_ota_0/vbias1 diff_to_se_converter_0/se_fold_casc_wide_swing_ota_0/vbias1 VSS sky130_fd_pr__nfet_01v8_lvt ad=0p pd=0u as=0p ps=0u w=3e+06u l=4.8e+06u
X62 input_amplifier_0/vom1 input_amplifier_0/diff_fold_casc_ota_0/vbias3 input_amplifier_0/diff_fold_casc_ota_0/vcascnm VSS sky130_fd_pr__nfet_01v8 ad=0p pd=0u as=0p ps=0u w=3e+06u l=4.8e+06u
X63 vintm VSS VSS VSS sky130_fd_pr__nfet_01v8_lvt ad=0p pd=0u as=0p ps=0u w=2e+06u l=1e+06u
X64 dac_8bit_0/se_fold_casc_wide_swing_ota_0/vcascpm dac_8bit_0/se_fold_casc_wide_swing_ota_0/vbias2 dac_8bit_0/se_fold_casc_wide_swing_ota_0/vmirror VDD sky130_fd_pr__pfet_01v8 ad=0p pd=0u as=0p ps=0u w=3e+06u l=4.8e+06u
X65 vpeak VSS sky130_fd_pr__cap_mim_m3_1 l=2.4e+07u w=2.6e+07u
X66 peak_detector_0/se_fold_casc_wide_swing_ota_0/vcascpm peak_detector_0/vpeak peak_detector_0/se_fold_casc_wide_swing_ota_0/vtail_cascn VSS sky130_fd_pr__nfet_01v8_lvt ad=0p pd=0u as=0p ps=0u w=3e+06u l=4.8e+06u
X67 diff_to_se_converter_0/se_fold_casc_wide_swing_ota_0/vmirror diff_to_se_converter_0/se_fold_casc_wide_swing_ota_0/vmirror diff_to_se_converter_0/se_fold_casc_wide_swing_ota_0/vmirror VSS sky130_fd_pr__nfet_01v8 ad=0p pd=0u as=0p ps=0u w=3e+06u l=4.8e+06u
X68 VSS a_242526_n121193# a_242484_n120789# VSS sky130_fd_pr__nfet_01v8 ad=0p pd=0u as=0p ps=0u w=420000u l=150000u
X69 input_amplifier_0/diff_fold_casc_ota_0/vcascnm input_amplifier_0/diff_fold_casc_ota_0/vbias4 VSS VSS sky130_fd_pr__nfet_01v8 ad=0p pd=0u as=0p ps=0u w=3e+06u l=4.8e+06u
X70 dac_8bit_0/se_fold_casc_wide_swing_ota_0/vcascnp dac_8bit_0/vcom_buf dac_8bit_0/se_fold_casc_wide_swing_ota_0/vtail_cascp VDD sky130_fd_pr__pfet_01v8_lvt ad=0p pd=0u as=0p ps=0u w=3e+06u l=4.8e+06u
X71 peak_detector_0/se_fold_casc_wide_swing_ota_0/vcascpp peak_detector_0/se_fold_casc_wide_swing_ota_0/vmirror VDD VDD sky130_fd_pr__pfet_01v8_lvt ad=0p pd=0u as=0p ps=0u w=3e+06u l=4.8e+06u
X72 sample_and_hold_0/se_fold_casc_wide_swing_ota_0/M13d sample_and_hold_0/se_fold_casc_wide_swing_ota_0/M13d sample_and_hold_0/se_fold_casc_wide_swing_ota_0/M13d VDD sky130_fd_pr__pfet_01v8_lvt ad=0p pd=0u as=0p ps=0u w=3e+06u l=4.8e+06u
X73 dac_8bit_1/se_fold_casc_wide_swing_ota_0/vcascnm dac_8bit_1/se_fold_casc_wide_swing_ota_0/vbias3 dac_8bit_1/se_fold_casc_wide_swing_ota_0/vmirror VSS sky130_fd_pr__nfet_01v8 ad=0p pd=0u as=0p ps=0u w=3e+06u l=4.8e+06u
X74 VSS dac_8bit_1/se_fold_casc_wide_swing_ota_0/vbias4 dac_8bit_1/se_fold_casc_wide_swing_ota_0/vcascnp VSS sky130_fd_pr__nfet_01v8 ad=0p pd=0u as=0p ps=0u w=3e+06u l=4.8e+06u
X75 a_338149_n185569# adc_clk VSS VSS sky130_fd_pr__nfet_01v8 ad=0p pd=0u as=0p ps=0u w=420000u l=150000u
X76 adc_vcaparrayA dac_8bit_0/c4m sky130_fd_pr__cap_mim_m3_1 l=7e+06u w=7e+06u
X77 dac_8bit_1/c0m dac_8bit_1/amux_2to1_8/SELB vpeak_sampled VDD sky130_fd_pr__pfet_01v8_hvt ad=0p pd=0u as=0p ps=0u w=2e+06u l=1e+06u
X78 peak_detector_0/se_fold_casc_wide_swing_ota_0/M16d peak_detector_0/se_fold_casc_wide_swing_ota_0/vbias2 peak_detector_0/se_fold_casc_wide_swing_ota_0/M13d VDD sky130_fd_pr__pfet_01v8 ad=0p pd=0u as=0p ps=0u w=3e+06u l=4.8e+06u
X79 input_amplifier_0/diff_fold_casc_ota_0/vcmn_casc_tail1 input_amplifier_0/vop1 input_amplifier_0/diff_fold_casc_ota_0/vcmcn_casc VSS sky130_fd_pr__nfet_01v8_lvt ad=0p pd=0u as=0p ps=0u w=1e+06u l=800000u
X80 VDD vbiasp low_freq_pll_0/ibiasn VDD sky130_fd_pr__pfet_01v8 ad=0p pd=0u as=0p ps=0u w=6e+06u l=4e+06u
X81 VDD VDD VDD VDD sky130_fd_pr__pfet_01v8_hvt ad=0p pd=0u as=0p ps=0u w=8e+06u l=2e+06u
X82 input_amplifier_0/diff_fold_casc_ota_1/M3d input_amplifier_0/diff_fold_casc_ota_1/M3d input_amplifier_0/diff_fold_casc_ota_1/vbias3 VSS sky130_fd_pr__nfet_01v8 ad=0p pd=0u as=0p ps=0u w=3e+06u l=4.8e+06u
X83 VSS dac_8bit_0/ibiasn dac_8bit_0/se_fold_casc_wide_swing_ota_0/vbias2 VSS sky130_fd_pr__nfet_01v8 ad=0p pd=0u as=0p ps=0u w=3e+06u l=4.8e+06u
X84 vfiltp vintp biquad_gm_c_filter_0/gm_c_stage_3/vtail_diff VSS sky130_fd_pr__nfet_01v8_lvt ad=0p pd=0u as=0p ps=0u w=2e+06u l=1e+06u
X85 VSS diff_to_se_converter_0/se_fold_casc_wide_swing_ota_0/vbias4 diff_to_se_converter_0/se_fold_casc_wide_swing_ota_0/vcascnp VSS sky130_fd_pr__nfet_01v8 ad=0p pd=0u as=0p ps=0u w=3e+06u l=4.8e+06u
X86 vpeak_sampled sample sample_and_hold_1/vholdm VSS sky130_fd_pr__nfet_01v8 ad=0p pd=0u as=0p ps=0u w=2e+06u l=1e+06u
X87 peak_detector_0/se_fold_casc_wide_swing_ota_0/vcascnm peak_detector_0/se_fold_casc_wide_swing_ota_0/vcascnm peak_detector_0/se_fold_casc_wide_swing_ota_0/vcascnm VSS sky130_fd_pr__nfet_01v8 ad=0p pd=0u as=0p ps=0u w=3e+06u l=4.8e+06u
X88 a_222498_n127742# low_freq_pll_0/cs_ring_osc_0/vpbias a_222040_n127742# VDD sky130_fd_pr__pfet_01v8_hvt ad=0p pd=0u as=0p ps=0u w=8e+06u l=2e+06u
X89 dac_8bit_1/se_fold_casc_wide_swing_ota_0/vbias1 dac_8bit_1/se_fold_casc_wide_swing_ota_0/vbias1 dac_8bit_1/se_fold_casc_wide_swing_ota_0/vbias2 VSS sky130_fd_pr__nfet_01v8_lvt ad=0p pd=0u as=0p ps=0u w=3e+06u l=4.8e+06u
X90 dac_8bit_1/se_fold_casc_wide_swing_ota_0/vcascnp dac_8bit_1/se_fold_casc_wide_swing_ota_0/vbias3 dac_8bit_1/vcom_buf VSS sky130_fd_pr__nfet_01v8 ad=0p pd=0u as=0p ps=0u w=3e+06u l=4.8e+06u
X91 input_amplifier_0/diff_fold_casc_ota_0/vtail_casc input_amplifier_0/diff_fold_casc_ota_0/vtail_casc input_amplifier_0/diff_fold_casc_ota_0/vtail_casc VSS sky130_fd_pr__nfet_01v8_lvt ad=0p pd=0u as=0p ps=0u w=3e+06u l=1.2e+06u
X92 sample_and_hold_1/se_fold_casc_wide_swing_ota_0/vbias3 sample_and_hold_1/se_fold_casc_wide_swing_ota_0/M8d sample_and_hold_1/se_fold_casc_wide_swing_ota_0/M8d VSS sky130_fd_pr__nfet_01v8 ad=0p pd=0u as=0p ps=0u w=3e+06u l=4.8e+06u
X93 adc_vcaparrayB dac_8bit_1/c7m sky130_fd_pr__cap_mim_m3_1 l=7e+06u w=7e+06u
X94 VSS VSS sky130_fd_pr__cap_mim_m3_1 l=2e+06u w=3.1e+07u
X95 peak_detector_0/se_fold_casc_wide_swing_ota_1/vbias1 peak_detector_0/se_fold_casc_wide_swing_ota_1/vbias2 peak_detector_0/se_fold_casc_wide_swing_ota_1/M7d VDD sky130_fd_pr__pfet_01v8 ad=0p pd=0u as=0p ps=0u w=3e+06u l=4.8e+06u
X96 a_241786_n135628# low_freq_pll_0/cs_ring_osc_0/cs_ring_osc_stage_4/voutcs a_241328_n135628# VSS sky130_fd_pr__nfet_01v8 ad=0p pd=0u as=0p ps=0u w=1e+06u l=2e+06u
X97 VSS low_freq_pll_0/freq_div_0/vin a_241919_n120623# VSS sky130_fd_pr__nfet_01v8 ad=0p pd=0u as=0p ps=0u w=420000u l=150000u
X98 VDD VDD diff_to_se_converter_0/se_fold_casc_wide_swing_ota_0/M13d VDD sky130_fd_pr__pfet_01v8 ad=0p pd=0u as=0p ps=0u w=3e+06u l=4.8e+06u
X99 dac_8bit_0/se_fold_casc_wide_swing_ota_0/vbias4 dac_8bit_0/se_fold_casc_wide_swing_ota_0/vbias3 a_356329_n113250# VSS sky130_fd_pr__nfet_01v8 ad=0p pd=0u as=0p ps=0u w=3e+06u l=4.8e+06u
X100 input_amplifier_0/vom1 input_amplifier_0/diff_fold_casc_ota_0/vbias2 input_amplifier_0/diff_fold_casc_ota_0/vfoldm VDD sky130_fd_pr__pfet_01v8 ad=0p pd=0u as=0p ps=0u w=3e+06u l=4.8e+06u
X101 dac_8bit_0/latched_comparator_folded_0/vtailp vlowA dac_8bit_0/latched_comparator_folded_0/vlatchm VDD sky130_fd_pr__pfet_01v8_lvt ad=0p pd=0u as=0p ps=0u w=2e+06u l=1e+06u
X102 a_338505_n185243# a_338285_n185243# VSS VSS sky130_fd_pr__nfet_01v8 ad=0p pd=0u as=0p ps=0u w=420000u l=150000u
X103 VDD VDD VDD VDD sky130_fd_pr__pfet_01v8_lvt ad=0p pd=0u as=0p ps=0u w=3e+06u l=4.8e+06u
X104 VSS peak_detector_0/se_fold_casc_wide_swing_ota_0/vbias4 a_189446_n180872# VSS sky130_fd_pr__nfet_01v8 ad=0p pd=0u as=0p ps=0u w=3e+06u l=4.8e+06u
X105 VDD sample_and_hold_0/se_fold_casc_wide_swing_ota_0/vbias1 sample_and_hold_0/se_fold_casc_wide_swing_ota_0/M7d VDD sky130_fd_pr__pfet_01v8_lvt ad=0p pd=0u as=0p ps=0u w=3e+06u l=4.8e+06u
X106 sample_and_hold_1/se_fold_casc_wide_swing_ota_0/vbias1 sample_and_hold_1/se_fold_casc_wide_swing_ota_0/vbias1 sample_and_hold_1/se_fold_casc_wide_swing_ota_0/vbias2 VSS sky130_fd_pr__nfet_01v8_lvt ad=0p pd=0u as=0p ps=0u w=3e+06u l=4.8e+06u
X107 vse VSS sky130_fd_pr__cap_mim_m3_1 l=2.4e+07u w=2.6e+07u
X108 sample_and_hold_0/se_fold_casc_wide_swing_ota_0/vtail_cascn sample_and_hold_0/vhold sample_and_hold_0/se_fold_casc_wide_swing_ota_0/vcascpm VSS sky130_fd_pr__nfet_01v8_lvt ad=0p pd=0u as=0p ps=0u w=3e+06u l=4.8e+06u
X109 peak_detector_0/se_fold_casc_wide_swing_ota_1/vbias2 peak_detector_0/se_fold_casc_wide_swing_ota_1/vbias1 peak_detector_0/se_fold_casc_wide_swing_ota_1/vbias1 VSS sky130_fd_pr__nfet_01v8_lvt ad=0p pd=0u as=0p ps=0u w=3e+06u l=4.8e+06u
X110 diff_to_se_converter_0/se_fold_casc_wide_swing_ota_0/vcascnp diff_to_se_converter_0/se_fold_casc_wide_swing_ota_0/vbias3 vse VSS sky130_fd_pr__nfet_01v8 ad=0p pd=0u as=0p ps=0u w=3e+06u l=4.8e+06u
X111 VSS input_amplifier_0/diff_fold_casc_ota_0/vbias4 input_amplifier_0/diff_fold_casc_ota_0/vtail_casc VSS sky130_fd_pr__nfet_01v8 ad=0p pd=0u as=0p ps=0u w=3e+06u l=4.8e+06u
X112 VSS VSS sky130_fd_pr__cap_mim_m3_2 l=3.1e+07u w=2e+06u
X113 diff_to_se_converter_0/se_fold_casc_wide_swing_ota_0/vbias2 diff_to_se_converter_0/se_fold_casc_wide_swing_ota_0/vbias2 diff_to_se_converter_0/se_fold_casc_wide_swing_ota_0/vbias2 VSS sky130_fd_pr__nfet_01v8_lvt ad=0p pd=0u as=0p ps=0u w=3e+06u l=4.8e+06u
X114 vrefB dac_8bit_1/amux_2to1_10/SELB dac_8bit_1/amux_2to1_7/B VDD sky130_fd_pr__pfet_01v8_hvt ad=0p pd=0u as=0p ps=0u w=2e+06u l=1e+06u
X115 VSS peak_detector_0/se_fold_casc_wide_swing_ota_1/vbias4 peak_detector_0/se_fold_casc_wide_swing_ota_1/vcascnm VSS sky130_fd_pr__nfet_01v8 ad=0p pd=0u as=0p ps=0u w=3e+06u l=4.8e+06u
X116 peak_detector_0/se_fold_casc_wide_swing_ota_1/vbias3 peak_detector_0/se_fold_casc_wide_swing_ota_1/M8d peak_detector_0/se_fold_casc_wide_swing_ota_1/M8d VSS sky130_fd_pr__nfet_01v8 ad=0p pd=0u as=0p ps=0u w=3e+06u l=4.8e+06u
X117 VSS VSS VSS VSS sky130_fd_pr__nfet_01v8 ad=0p pd=0u as=0p ps=0u w=3e+06u l=4.8e+06u
X118 diff_to_se_converter_0/se_fold_casc_wide_swing_ota_0/vbias2 diff_to_se_converter_0/se_fold_casc_wide_swing_ota_0/vbias1 diff_to_se_converter_0/se_fold_casc_wide_swing_ota_0/vbias1 VSS sky130_fd_pr__nfet_01v8_lvt ad=0p pd=0u as=0p ps=0u w=3e+06u l=4.8e+06u
X119 vcp_sampled VSS sky130_fd_pr__cap_mim_m3_1 l=2.4e+07u w=2.6e+07u
X120 VSS peak_detector_0/se_fold_casc_wide_swing_ota_0/vbias4 peak_detector_0/se_fold_casc_wide_swing_ota_0/vcascnp VSS sky130_fd_pr__nfet_01v8 ad=0p pd=0u as=0p ps=0u w=3e+06u l=4.8e+06u
X121 VDD a_245224_n123369# a_245151_n123343# VDD sky130_fd_pr__pfet_01v8_hvt ad=0p pd=0u as=0p ps=0u w=420000u l=150000u
X122 input_amplifier_0/diff_fold_casc_ota_1/vbias3 input_amplifier_0/diff_fold_casc_ota_1/M3d input_amplifier_0/diff_fold_casc_ota_1/M3d VSS sky130_fd_pr__nfet_01v8 ad=0p pd=0u as=0p ps=0u w=3e+06u l=4.8e+06u
X123 sample_and_hold_0/se_fold_casc_wide_swing_ota_0/vbias2 sample_and_hold_0/se_fold_casc_wide_swing_ota_0/vbias1 sample_and_hold_0/se_fold_casc_wide_swing_ota_0/vbias1 VSS sky130_fd_pr__nfet_01v8_lvt ad=0p pd=0u as=0p ps=0u w=3e+06u l=4.8e+06u
X124 input_amplifier_0/txgate_0/txb gain_ctrl_0 VDD VDD sky130_fd_pr__pfet_01v8_hvt ad=0p pd=0u as=0p ps=0u w=1e+06u l=150000u
X125 VSS VSS sky130_fd_pr__cap_mim_m3_1 l=2e+06u w=8e+06u
X126 low_freq_pll_0/freq_div_0/sky130_fd_sc_hd__inv_4_7/Y low_freq_pll_0/freq_div_0/sky130_fd_sc_hd__inv_4_7/A VSS VSS sky130_fd_pr__nfet_01v8 ad=0p pd=0u as=0p ps=0u w=650000u l=150000u
X127 VSS peak_detector_0/se_fold_casc_wide_swing_ota_0/vbias4 peak_detector_0/se_fold_casc_wide_swing_ota_0/vcascnp VSS sky130_fd_pr__nfet_01v8 ad=0p pd=0u as=0p ps=0u w=3e+06u l=4.8e+06u
X128 dac_8bit_1/latched_comparator_folded_0/vlatchp dac_8bit_1/vcom_buf dac_8bit_1/latched_comparator_folded_0/vtailp VDD sky130_fd_pr__pfet_01v8_lvt ad=0p pd=0u as=0p ps=0u w=2e+06u l=1e+06u
X129 VSS peak_detector_0/se_fold_casc_wide_swing_ota_1/vbias4 peak_detector_0/se_fold_casc_wide_swing_ota_1/vtail_cascn VSS sky130_fd_pr__nfet_01v8 ad=0p pd=0u as=0p ps=0u w=3e+06u l=4.8e+06u
X130 dac_8bit_1/se_fold_casc_wide_swing_ota_0/vbias1 dac_8bit_1/se_fold_casc_wide_swing_ota_0/vbias1 dac_8bit_1/se_fold_casc_wide_swing_ota_0/vbias1 VSS sky130_fd_pr__nfet_01v8_lvt ad=0p pd=0u as=0p ps=0u w=3e+06u l=4.8e+06u
X131 peak_detector_0/verr peak_detector_0/se_fold_casc_wide_swing_ota_1/vbias2 peak_detector_0/se_fold_casc_wide_swing_ota_1/vcascpp VDD sky130_fd_pr__pfet_01v8 ad=0p pd=0u as=0p ps=0u w=3e+06u l=4.8e+06u
X132 input_amplifier_0/diff_fold_casc_ota_1/vcascnm input_amplifier_0/diff_fold_casc_ota_1/vbias4 VSS VSS sky130_fd_pr__nfet_01v8 ad=0p pd=0u as=0p ps=0u w=3e+06u l=4.8e+06u
X133 peak_detector_0/se_fold_casc_wide_swing_ota_0/M7d peak_detector_0/se_fold_casc_wide_swing_ota_0/M7d peak_detector_0/se_fold_casc_wide_swing_ota_0/M7d VDD sky130_fd_pr__pfet_01v8_lvt ad=0p pd=0u as=0p ps=0u w=3e+06u l=4.8e+06u
X134 dac_8bit_0/amux_2to1_10/SELB q1A VSS VSS sky130_fd_pr__nfet_01v8 ad=0p pd=0u as=0p ps=0u w=650000u l=150000u
X135 VSS input_amplifier_0/diff_fold_casc_ota_1/vbias4 input_amplifier_0/diff_fold_casc_ota_1/vcascnp VSS sky130_fd_pr__nfet_01v8 ad=0p pd=0u as=0p ps=0u w=3e+06u l=4.8e+06u
X136 VSS peak_detector_0/se_fold_casc_wide_swing_ota_1/vbias4 peak_detector_0/se_fold_casc_wide_swing_ota_1/vcascnm VSS sky130_fd_pr__nfet_01v8 ad=0p pd=0u as=0p ps=0u w=3e+06u l=4.8e+06u
X137 input_amplifier_0/diff_fold_casc_ota_1/vfoldm input_amplifier_0/vip2 input_amplifier_0/diff_fold_casc_ota_1/vtail_casc VSS sky130_fd_pr__nfet_01v8_lvt ad=0p pd=0u as=0p ps=0u w=3e+06u l=1.2e+06u
X138 diff_to_se_converter_0/se_fold_casc_wide_swing_ota_0/vbias1 diff_to_se_converter_0/se_fold_casc_wide_swing_ota_0/vbias1 diff_to_se_converter_0/se_fold_casc_wide_swing_ota_0/vbias2 VSS sky130_fd_pr__nfet_01v8_lvt ad=0p pd=0u as=0p ps=0u w=3e+06u l=4.8e+06u
X139 sample_and_hold_0/se_fold_casc_wide_swing_ota_0/M13d sample_and_hold_0/se_fold_casc_wide_swing_ota_0/vbias1 VDD VDD sky130_fd_pr__pfet_01v8_lvt ad=0p pd=0u as=0p ps=0u w=3e+06u l=4.8e+06u
X140 vampm VDD VDD VDD sky130_fd_pr__pfet_01v8_hvt ad=0p pd=0u as=0p ps=0u w=2e+06u l=1e+06u
X141 input_amplifier_0/diff_fold_casc_ota_0/vcmn_casc_tail2 vocm input_amplifier_0/diff_fold_casc_ota_0/vcmcn2_casc VSS sky130_fd_pr__nfet_01v8_lvt ad=0p pd=0u as=0p ps=0u w=1e+06u l=800000u
X142 adc_vcaparrayA dac_8bit_0/c7m sky130_fd_pr__cap_mim_m3_1 l=7e+06u w=7e+06u
X143 VSS peak_detector_0/se_fold_casc_wide_swing_ota_1/vbias4 peak_detector_0/se_fold_casc_wide_swing_ota_1/vcascnm VSS sky130_fd_pr__nfet_01v8 ad=0p pd=0u as=0p ps=0u w=3e+06u l=4.8e+06u
X144 VSS peak_detector_0/se_fold_casc_wide_swing_ota_0/vbias4 a_189446_n180872# VSS sky130_fd_pr__nfet_01v8 ad=0p pd=0u as=0p ps=0u w=3e+06u l=4.8e+06u
X145 sample_and_hold_1/se_fold_casc_wide_swing_ota_0/M7d sample_and_hold_1/se_fold_casc_wide_swing_ota_0/M7d sample_and_hold_1/se_fold_casc_wide_swing_ota_0/M7d VDD sky130_fd_pr__pfet_01v8_lvt ad=0p pd=0u as=0p ps=0u w=3e+06u l=4.8e+06u
X146 VSS VSS vampm VSS sky130_fd_pr__nfet_01v8 ad=0p pd=0u as=0p ps=0u w=1e+06u l=1e+06u
X147 dac_8bit_0/se_fold_casc_wide_swing_ota_0/vcascpp dac_8bit_0/vcom_buf dac_8bit_0/se_fold_casc_wide_swing_ota_0/vtail_cascn VSS sky130_fd_pr__nfet_01v8_lvt ad=0p pd=0u as=0p ps=0u w=3e+06u l=4.8e+06u
X148 VSS VSS VSS VSS sky130_fd_pr__nfet_01v8 ad=0p pd=0u as=0p ps=0u w=3e+06u l=4.8e+06u
X149 vrefB dac_8bit_1/amux_2to1_13/SELB dac_8bit_1/amux_2to1_4/B VDD sky130_fd_pr__pfet_01v8_hvt ad=0p pd=0u as=0p ps=0u w=2e+06u l=1e+06u
X150 adc_vcaparrayA dac_8bit_0/c7m sky130_fd_pr__cap_mim_m3_1 l=7e+06u w=7e+06u
X151 peak_detector_0/se_fold_casc_wide_swing_ota_0/vcascnm peak_detector_0/se_fold_casc_wide_swing_ota_0/vbias4 VSS VSS sky130_fd_pr__nfet_01v8 ad=0p pd=0u as=0p ps=0u w=3e+06u l=4.8e+06u
X152 vrefA VDD VDD VDD sky130_fd_pr__pfet_01v8_hvt ad=0p pd=0u as=0p ps=0u w=2e+06u l=1e+06u
X153 VDD peak_detector_0/se_fold_casc_wide_swing_ota_0/vbias1 peak_detector_0/se_fold_casc_wide_swing_ota_0/M13d VDD sky130_fd_pr__pfet_01v8_lvt ad=0p pd=0u as=0p ps=0u w=3e+06u l=4.8e+06u
X154 VDD a_242526_n120511# a_242453_n120257# VDD sky130_fd_pr__pfet_01v8_hvt ad=0p pd=0u as=0p ps=0u w=420000u l=150000u
X155 a_239048_n115125# VDD VDD VDD sky130_fd_pr__pfet_01v8_hvt ad=0p pd=0u as=0p ps=0u w=420000u l=150000u
X156 adc_vcaparrayB dac_8bit_1/c3m sky130_fd_pr__cap_mim_m3_1 l=7e+06u w=7e+06u
X157 VSS sample_and_hold_1/se_fold_casc_wide_swing_ota_0/vbias4 sample_and_hold_1/se_fold_casc_wide_swing_ota_0/vcascnm VSS sky130_fd_pr__nfet_01v8 ad=0p pd=0u as=0p ps=0u w=3e+06u l=4.8e+06u
X158 VSS input_amplifier_0/diff_fold_casc_ota_0/vbias4 input_amplifier_0/diff_fold_casc_ota_0/vcascnm VSS sky130_fd_pr__nfet_01v8 ad=0p pd=0u as=0p ps=0u w=3e+06u l=4.8e+06u
X159 vlowB VDD VDD VDD sky130_fd_pr__pfet_01v8_hvt ad=0p pd=0u as=0p ps=0u w=2e+06u l=1e+06u
X160 vpeak sample sample_and_hold_1/vhold VSS sky130_fd_pr__nfet_01v8 ad=0p pd=0u as=0p ps=0u w=2e+06u l=1e+06u
X161 input_amplifier_0/diff_fold_casc_ota_0/vbias1 input_amplifier_0/diff_fold_casc_ota_0/vbias1 input_amplifier_0/diff_fold_casc_ota_0/vbias2 VSS sky130_fd_pr__nfet_01v8_lvt ad=0p pd=0u as=0p ps=0u w=3e+06u l=4.8e+06u
X162 VDD a_242951_n121443# a_243382_n121389# VDD sky130_fd_pr__pfet_01v8_hvt ad=0p pd=0u as=0p ps=0u w=640000u l=150000u
X163 a_245056_n123343# a_244617_n123337# a_244971_n123343# VSS sky130_fd_pr__nfet_01v8 ad=0p pd=0u as=0p ps=0u w=360000u l=150000u
X164 VSS dac_8bit_0/se_fold_casc_wide_swing_ota_0/vbias4 dac_8bit_0/se_fold_casc_wide_swing_ota_0/vcascnm VSS sky130_fd_pr__nfet_01v8 ad=0p pd=0u as=0p ps=0u w=3e+06u l=4.8e+06u
X165 peak_detector_0/se_fold_casc_wide_swing_ota_1/M13d peak_detector_0/se_fold_casc_wide_swing_ota_1/vbias2 peak_detector_0/se_fold_casc_wide_swing_ota_1/M16d VDD sky130_fd_pr__pfet_01v8 ad=0p pd=0u as=0p ps=0u w=3e+06u l=4.8e+06u
X166 peak_detector_0/se_fold_casc_wide_swing_ota_1/M8d peak_detector_0/se_fold_casc_wide_swing_ota_1/vbias2 peak_detector_0/se_fold_casc_wide_swing_ota_1/M9d VDD sky130_fd_pr__pfet_01v8 ad=0p pd=0u as=0p ps=0u w=3e+06u l=4.8e+06u
X167 diff_to_se_converter_0/se_fold_casc_wide_swing_ota_0/vcascnm diff_to_se_converter_0/se_fold_casc_wide_swing_ota_0/vbias4 VSS VSS sky130_fd_pr__nfet_01v8 ad=0p pd=0u as=0p ps=0u w=3e+06u l=4.8e+06u
X168 biquad_gm_c_filter_0/gm_c_stage_0/vbiasp VDD VDD VDD sky130_fd_pr__pfet_01v8 ad=0p pd=0u as=0p ps=0u w=1e+06u l=1e+06u
X169 VDD VDD VDD VDD sky130_fd_pr__pfet_01v8_lvt ad=0p pd=0u as=0p ps=0u w=3e+06u l=4.8e+06u
X170 a_241481_n130007# low_freq_pll_0/cs_ring_osc_0/cs_ring_osc_stage_5/voutcs a_241023_n130007# VDD sky130_fd_pr__pfet_01v8_hvt ad=0p pd=0u as=0p ps=0u w=6e+06u l=2e+06u
X171 VSS VSS sky130_fd_pr__cap_mim_m3_1 l=1e+07u w=2e+06u
X172 VDD VDD low_freq_pll_0/pfd_cp_lpf_0/vpbias VDD sky130_fd_pr__pfet_01v8 ad=0p pd=0u as=0p ps=0u w=1e+06u l=4e+06u
X173 peak_detector_0/se_fold_casc_wide_swing_ota_1/M9d peak_detector_0/se_fold_casc_wide_swing_ota_1/M9d peak_detector_0/se_fold_casc_wide_swing_ota_1/M9d VDD sky130_fd_pr__pfet_01v8_lvt ad=0p pd=0u as=0p ps=0u w=3e+06u l=4.8e+06u
X174 diff_to_se_converter_0/se_fold_casc_wide_swing_ota_0/vbias3 diff_to_se_converter_0/se_fold_casc_wide_swing_ota_0/M8d diff_to_se_converter_0/se_fold_casc_wide_swing_ota_0/M8d VSS sky130_fd_pr__nfet_01v8 ad=0p pd=0u as=0p ps=0u w=3e+06u l=4.8e+06u
X175 VSS VSS sky130_fd_pr__cap_mim_m3_1 l=2e+06u w=2e+06u
X176 dac_8bit_0/amux_2to1_13/SELB q3A VSS VSS sky130_fd_pr__nfet_01v8 ad=0p pd=0u as=0p ps=0u w=650000u l=150000u
X177 biquad_gm_c_filter_0/ibiasn1 biquad_gm_c_filter_0/ibiasn1 VSS VSS sky130_fd_pr__nfet_01v8 ad=0p pd=0u as=0p ps=0u w=1e+06u l=4e+06u
X178 adc_vcaparrayA dac_8bit_0/c6m sky130_fd_pr__cap_mim_m3_1 l=7e+06u w=7e+06u
X179 sample_and_hold_1/se_fold_casc_wide_swing_ota_0/vcascnm sample_and_hold_1/se_fold_casc_wide_swing_ota_0/vbias3 sample_and_hold_1/se_fold_casc_wide_swing_ota_0/vmirror VSS sky130_fd_pr__nfet_01v8 ad=0p pd=0u as=0p ps=0u w=3e+06u l=4.8e+06u
X180 dac_8bit_0/se_fold_casc_wide_swing_ota_0/vbias2 dac_8bit_0/se_fold_casc_wide_swing_ota_0/vbias1 dac_8bit_0/se_fold_casc_wide_swing_ota_0/vbias1 VSS sky130_fd_pr__nfet_01v8_lvt ad=0p pd=0u as=0p ps=0u w=3e+06u l=4.8e+06u
X181 peak_detector_0/se_fold_casc_wide_swing_ota_0/vtail_cascn peak_detector_0/se_fold_casc_wide_swing_ota_0/vtail_cascn peak_detector_0/se_fold_casc_wide_swing_ota_0/vtail_cascn VSS sky130_fd_pr__nfet_01v8_lvt ad=0p pd=0u as=0p ps=0u w=3e+06u l=4.8e+06u