* NGSPICE file created from diff_to_se_converter_flat.ext - technology: sky130A

.subckt diff_to_se_converter_flat vdiffp vdiffm VDD VSS vocm vse ibiasn rst_n
X0 VDD se_fold_casc_wide_swing_ota_0/vbias1 se_fold_casc_wide_swing_ota_0/M7d VDD sky130_fd_pr__pfet_01v8_lvt ad=0p pd=0u as=0p ps=0u w=3e+06u l=4.8e+06u
X1 se_fold_casc_wide_swing_ota_0/vcascnp se_fold_casc_wide_swing_ota_0/vbias4 VSS VSS sky130_fd_pr__nfet_01v8 ad=0p pd=0u as=0p ps=0u w=3e+06u l=4.8e+06u
X2 se_fold_casc_wide_swing_ota_0/vbias1 se_fold_casc_wide_swing_ota_0/vbias1 se_fold_casc_wide_swing_ota_0/vbias2 VSS sky130_fd_pr__nfet_01v8_lvt ad=0p pd=0u as=0p ps=0u w=3e+06u l=4.8e+06u
X3 se_fold_casc_wide_swing_ota_0/vbias4 se_fold_casc_wide_swing_ota_0/vbias3 a_15516_4308# VSS sky130_fd_pr__nfet_01v8 ad=0p pd=0u as=0p ps=0u w=3e+06u l=4.8e+06u
X4 VSS se_fold_casc_wide_swing_ota_0/vbias4 a_15516_4308# VSS sky130_fd_pr__nfet_01v8 ad=0p pd=0u as=0p ps=0u w=3e+06u l=4.8e+06u
X5 VDD se_fold_casc_wide_swing_ota_0/vmirror se_fold_casc_wide_swing_ota_0/vcascpm VDD sky130_fd_pr__pfet_01v8_lvt ad=0p pd=0u as=0p ps=0u w=3e+06u l=4.8e+06u
X6 se_fold_casc_wide_swing_ota_0/vcascpp vim se_fold_casc_wide_swing_ota_0/vtail_cascn VSS sky130_fd_pr__nfet_01v8_lvt ad=0p pd=0u as=0p ps=0u w=3e+06u l=4.8e+06u
X7 VSS VSS sky130_fd_pr__cap_mim_m3_1 l=2e+06u w=8e+06u
X8 se_fold_casc_wide_swing_ota_0/vcascpm vip se_fold_casc_wide_swing_ota_0/vtail_cascn VSS sky130_fd_pr__nfet_01v8_lvt ad=0p pd=0u as=0p ps=0u w=3e+06u l=4.8e+06u
X9 VSS VSS VSS VSS sky130_fd_pr__nfet_01v8 ad=0p pd=0u as=0p ps=0u w=3e+06u l=4.8e+06u
X10 VSS VSS vip VSS sky130_fd_pr__nfet_01v8 ad=0p pd=0u as=0p ps=0u w=1e+06u l=1e+06u
X11 se_fold_casc_wide_swing_ota_0/vcascnm se_fold_casc_wide_swing_ota_0/vbias4 VSS VSS sky130_fd_pr__nfet_01v8 ad=0p pd=0u as=0p ps=0u w=3e+06u l=4.8e+06u
X12 se_fold_casc_wide_swing_ota_0/vbias3 se_fold_casc_wide_swing_ota_0/M8d se_fold_casc_wide_swing_ota_0/M8d VSS sky130_fd_pr__nfet_01v8 ad=0p pd=0u as=0p ps=0u w=3e+06u l=4.8e+06u
X13 se_fold_casc_wide_swing_ota_0/vtail_cascp se_fold_casc_wide_swing_ota_0/vbias1 VDD VDD sky130_fd_pr__pfet_01v8_lvt ad=0p pd=0u as=0p ps=0u w=3e+06u l=4.8e+06u
X14 VDD rst txgate_0/txb VDD sky130_fd_pr__pfet_01v8_hvt ad=0p pd=0u as=0p ps=0u w=1e+06u l=150000u
X15 ibiasn ibiasn VSS VSS sky130_fd_pr__nfet_01v8 ad=0p pd=0u as=0p ps=0u w=3e+06u l=4.8e+06u
X16 se_fold_casc_wide_swing_ota_0/vcascnp se_fold_casc_wide_swing_ota_0/vcascnp se_fold_casc_wide_swing_ota_0/vcascnp VSS sky130_fd_pr__nfet_01v8 ad=0p pd=0u as=0p ps=0u w=3e+06u l=4.8e+06u
X17 se_fold_casc_wide_swing_ota_0/vcascnp se_fold_casc_wide_swing_ota_0/vbias3 vse VSS sky130_fd_pr__nfet_01v8 ad=0p pd=0u as=0p ps=0u w=3e+06u l=4.8e+06u
X18 se_fold_casc_wide_swing_ota_0/vbias2 se_fold_casc_wide_swing_ota_0/vbias1 se_fold_casc_wide_swing_ota_0/vbias1 VSS sky130_fd_pr__nfet_01v8_lvt ad=0p pd=0u as=0p ps=0u w=3e+06u l=4.8e+06u
X19 se_fold_casc_wide_swing_ota_0/vbias3 se_fold_casc_wide_swing_ota_0/M8d se_fold_casc_wide_swing_ota_0/M8d VSS sky130_fd_pr__nfet_01v8 ad=0p pd=0u as=0p ps=0u w=3e+06u l=4.8e+06u
X20 VDD se_fold_casc_wide_swing_ota_0/vmirror se_fold_casc_wide_swing_ota_0/vcascpm VDD sky130_fd_pr__pfet_01v8_lvt ad=0p pd=0u as=0p ps=0u w=3e+06u l=4.8e+06u
X21 VSS VSS sky130_fd_pr__cap_mim_m3_2 l=4e+06u w=2.9e+07u
X22 se_fold_casc_wide_swing_ota_0/M7d se_fold_casc_wide_swing_ota_0/vbias2 se_fold_casc_wide_swing_ota_0/vbias1 VDD sky130_fd_pr__pfet_01v8 ad=0p pd=0u as=0p ps=0u w=3e+06u l=4.8e+06u
X23 se_fold_casc_wide_swing_ota_0/vcascnp se_fold_casc_wide_swing_ota_0/vbias4 VSS VSS sky130_fd_pr__nfet_01v8 ad=0p pd=0u as=0p ps=0u w=3e+06u l=4.8e+06u
X24 se_fold_casc_wide_swing_ota_0/M9d se_fold_casc_wide_swing_ota_0/vbias2 se_fold_casc_wide_swing_ota_0/M8d VDD sky130_fd_pr__pfet_01v8 ad=0p pd=0u as=0p ps=0u w=3e+06u l=4.8e+06u
X25 se_fold_casc_wide_swing_ota_0/vtail_cascp se_fold_casc_wide_swing_ota_0/vbias1 VDD VDD sky130_fd_pr__pfet_01v8_lvt ad=0p pd=0u as=0p ps=0u w=3e+06u l=4.8e+06u
X26 se_fold_casc_wide_swing_ota_0/vbias3 se_fold_casc_wide_swing_ota_0/M8d se_fold_casc_wide_swing_ota_0/M8d VSS sky130_fd_pr__nfet_01v8 ad=0p pd=0u as=0p ps=0u w=3e+06u l=4.8e+06u
X27 se_fold_casc_wide_swing_ota_0/vbias3 se_fold_casc_wide_swing_ota_0/M8d se_fold_casc_wide_swing_ota_0/M8d VSS sky130_fd_pr__nfet_01v8 ad=0p pd=0u as=0p ps=0u w=3e+06u l=4.8e+06u
X28 VSS VSS sky130_fd_pr__cap_mim_m3_1 l=2.9e+07u w=4e+06u
X29 VDD VDD VDD VDD sky130_fd_pr__pfet_01v8 ad=0p pd=0u as=0p ps=0u w=3e+06u l=4.8e+06u
X30 se_fold_casc_wide_swing_ota_0/vtail_cascn se_fold_casc_wide_swing_ota_0/vbias4 VSS VSS sky130_fd_pr__nfet_01v8 ad=0p pd=0u as=0p ps=0u w=3e+06u l=4.8e+06u
X31 se_fold_casc_wide_swing_ota_0/vcascpp vim se_fold_casc_wide_swing_ota_0/vtail_cascn VSS sky130_fd_pr__nfet_01v8_lvt ad=0p pd=0u as=0p ps=0u w=3e+06u l=4.8e+06u
X32 vdiffm txgate_1/txb vim VDD sky130_fd_pr__pfet_01v8_hvt ad=0p pd=0u as=0p ps=0u w=2e+06u l=1e+06u
X33 VSS VSS sky130_fd_pr__cap_mim_m3_1 l=2e+06u w=8e+06u
X34 a_15516_4308# se_fold_casc_wide_swing_ota_0/vbias4 VSS VSS sky130_fd_pr__nfet_01v8 ad=0p pd=0u as=0p ps=0u w=3e+06u l=4.8e+06u
X35 vse se_fold_casc_wide_swing_ota_0/vbias2 se_fold_casc_wide_swing_ota_0/vcascpp VDD sky130_fd_pr__pfet_01v8 ad=0p pd=0u as=0p ps=0u w=3e+06u l=4.8e+06u
X36 VSS VSS sky130_fd_pr__cap_mim_m3_2 l=4e+06u w=2.9e+07u
X37 se_fold_casc_wide_swing_ota_0/vcascpm se_fold_casc_wide_swing_ota_0/vcascpm se_fold_casc_wide_swing_ota_0/vcascpm VDD sky130_fd_pr__pfet_01v8_lvt ad=0p pd=0u as=0p ps=0u w=3e+06u l=4.8e+06u
X38 a_15516_4308# se_fold_casc_wide_swing_ota_0/vbias3 se_fold_casc_wide_swing_ota_0/vbias4 VSS sky130_fd_pr__nfet_01v8 ad=0p pd=0u as=0p ps=0u w=3e+06u l=4.8e+06u
X39 se_fold_casc_wide_swing_ota_0/vcascnp se_fold_casc_wide_swing_ota_0/vbias4 VSS VSS sky130_fd_pr__nfet_01v8 ad=0p pd=0u as=0p ps=0u w=3e+06u l=4.8e+06u
X40 se_fold_casc_wide_swing_ota_0/vcascnp se_fold_casc_wide_swing_ota_0/vbias3 vse VSS sky130_fd_pr__nfet_01v8 ad=0p pd=0u as=0p ps=0u w=3e+06u l=4.8e+06u
X41 se_fold_casc_wide_swing_ota_0/vcascnp se_fold_casc_wide_swing_ota_0/vbias4 VSS VSS sky130_fd_pr__nfet_01v8 ad=0p pd=0u as=0p ps=0u w=3e+06u l=4.8e+06u
X42 se_fold_casc_wide_swing_ota_0/vcascnm se_fold_casc_wide_swing_ota_0/vbias3 se_fold_casc_wide_swing_ota_0/vmirror VSS sky130_fd_pr__nfet_01v8 ad=0p pd=0u as=0p ps=0u w=3e+06u l=4.8e+06u
X43 se_fold_casc_wide_swing_ota_0/M13d se_fold_casc_wide_swing_ota_0/vbias1 VDD VDD sky130_fd_pr__pfet_01v8_lvt ad=0p pd=0u as=0p ps=0u w=3e+06u l=4.8e+06u
X44 VDD se_fold_casc_wide_swing_ota_0/vmirror se_fold_casc_wide_swing_ota_0/vcascpm VDD sky130_fd_pr__pfet_01v8_lvt ad=0p pd=0u as=0p ps=0u w=3e+06u l=4.8e+06u
X45 se_fold_casc_wide_swing_ota_0/vbias2 se_fold_casc_wide_swing_ota_0/vbias1 se_fold_casc_wide_swing_ota_0/vbias1 VSS sky130_fd_pr__nfet_01v8_lvt ad=0p pd=0u as=0p ps=0u w=3e+06u l=4.8e+06u
X46 se_fold_casc_wide_swing_ota_0/M8d se_fold_casc_wide_swing_ota_0/M8d se_fold_casc_wide_swing_ota_0/vbias3 VSS sky130_fd_pr__nfet_01v8 ad=0p pd=0u as=0p ps=0u w=3e+06u l=4.8e+06u
X47 VSS se_fold_casc_wide_swing_ota_0/vbias4 se_fold_casc_wide_swing_ota_0/vcascnm VSS sky130_fd_pr__nfet_01v8 ad=0p pd=0u as=0p ps=0u w=3e+06u l=4.8e+06u
X48 se_fold_casc_wide_swing_ota_0/vbias2 se_fold_casc_wide_swing_ota_0/vbias2 se_fold_casc_wide_swing_ota_0/vbias2 VSS sky130_fd_pr__nfet_01v8_lvt ad=0p pd=0u as=0p ps=0u w=3e+06u l=4.8e+06u
X49 se_fold_casc_wide_swing_ota_0/M8d se_fold_casc_wide_swing_ota_0/M8d se_fold_casc_wide_swing_ota_0/vbias3 VSS sky130_fd_pr__nfet_01v8 ad=0p pd=0u as=0p ps=0u w=3e+06u l=4.8e+06u
X50 se_fold_casc_wide_swing_ota_0/vcascpp se_fold_casc_wide_swing_ota_0/vmirror VDD VDD sky130_fd_pr__pfet_01v8_lvt ad=0p pd=0u as=0p ps=0u w=3e+06u l=4.8e+06u
X51 se_fold_casc_wide_swing_ota_0/vtail_cascn se_fold_casc_wide_swing_ota_0/vbias4 VSS VSS sky130_fd_pr__nfet_01v8 ad=0p pd=0u as=0p ps=0u w=3e+06u l=4.8e+06u
X52 se_fold_casc_wide_swing_ota_0/M13d se_fold_casc_wide_swing_ota_0/vbias1 VDD VDD sky130_fd_pr__pfet_01v8_lvt ad=0p pd=0u as=0p ps=0u w=3e+06u l=4.8e+06u
X53 se_fold_casc_wide_swing_ota_0/vbias2 se_fold_casc_wide_swing_ota_0/vbias1 se_fold_casc_wide_swing_ota_0/vbias1 VSS sky130_fd_pr__nfet_01v8_lvt ad=0p pd=0u as=0p ps=0u w=3e+06u l=4.8e+06u
X54 se_fold_casc_wide_swing_ota_0/M8d se_fold_casc_wide_swing_ota_0/M8d se_fold_casc_wide_swing_ota_0/vbias3 VSS sky130_fd_pr__nfet_01v8 ad=0p pd=0u as=0p ps=0u w=3e+06u l=4.8e+06u
X55 se_fold_casc_wide_swing_ota_0/M8d se_fold_casc_wide_swing_ota_0/M8d se_fold_casc_wide_swing_ota_0/vbias3 VSS sky130_fd_pr__nfet_01v8 ad=0p pd=0u as=0p ps=0u w=3e+06u l=4.8e+06u
X56 se_fold_casc_wide_swing_ota_0/vcascpp se_fold_casc_wide_swing_ota_0/vcascpp se_fold_casc_wide_swing_ota_0/vcascpp VDD sky130_fd_pr__pfet_01v8_lvt ad=0p pd=0u as=0p ps=0u w=3e+06u l=4.8e+06u
X57 se_fold_casc_wide_swing_ota_0/vbias2 se_fold_casc_wide_swing_ota_0/vbias2 se_fold_casc_wide_swing_ota_0/vbias2 VSS sky130_fd_pr__nfet_01v8_lvt ad=0p pd=0u as=0p ps=0u w=3e+06u l=4.8e+06u
X58 se_fold_casc_wide_swing_ota_0/vtail_cascn se_fold_casc_wide_swing_ota_0/vtail_cascn se_fold_casc_wide_swing_ota_0/vtail_cascn VSS sky130_fd_pr__nfet_01v8 ad=0p pd=0u as=0p ps=0u w=3e+06u l=4.8e+06u
X59 se_fold_casc_wide_swing_ota_0/M8d VDD VDD VDD sky130_fd_pr__pfet_01v8 ad=0p pd=0u as=0p ps=0u w=3e+06u l=4.8e+06u
X60 se_fold_casc_wide_swing_ota_0/M9d se_fold_casc_wide_swing_ota_0/vbias1 VDD VDD sky130_fd_pr__pfet_01v8_lvt ad=0p pd=0u as=0p ps=0u w=3e+06u l=4.8e+06u
X61 se_fold_casc_wide_swing_ota_0/vtail_cascn se_fold_casc_wide_swing_ota_0/vbias4 VSS VSS sky130_fd_pr__nfet_01v8 ad=0p pd=0u as=0p ps=0u w=3e+06u l=4.8e+06u
X62 se_fold_casc_wide_swing_ota_0/M16d se_fold_casc_wide_swing_ota_0/vbias2 se_fold_casc_wide_swing_ota_0/M13d VDD sky130_fd_pr__pfet_01v8 ad=0p pd=0u as=0p ps=0u w=3e+06u l=4.8e+06u
X63 vim txgate_1/txb vdiffm VDD sky130_fd_pr__pfet_01v8_hvt ad=0p pd=0u as=0p ps=0u w=2e+06u l=1e+06u
X64 VSS se_fold_casc_wide_swing_ota_0/vbias4 se_fold_casc_wide_swing_ota_0/vcascnm VSS sky130_fd_pr__nfet_01v8 ad=0p pd=0u as=0p ps=0u w=3e+06u l=4.8e+06u
X65 VSS VSS sky130_fd_pr__cap_mim_m3_1 l=2e+06u w=1.2e+07u
X66 se_fold_casc_wide_swing_ota_0/M16d se_fold_casc_wide_swing_ota_0/M16d VSS VSS sky130_fd_pr__nfet_01v8 ad=0p pd=0u as=0p ps=0u w=3e+06u l=4.8e+06u
X67 se_fold_casc_wide_swing_ota_0/vcascnm se_fold_casc_wide_swing_ota_0/vbias4 VSS VSS sky130_fd_pr__nfet_01v8 ad=0p pd=0u as=0p ps=0u w=3e+06u l=4.8e+06u
X68 se_fold_casc_wide_swing_ota_0/vmirror se_fold_casc_wide_swing_ota_0/vbias3 se_fold_casc_wide_swing_ota_0/vcascnm VSS sky130_fd_pr__nfet_01v8 ad=0p pd=0u as=0p ps=0u w=3e+06u l=4.8e+06u
X69 se_fold_casc_wide_swing_ota_0/vmirror se_fold_casc_wide_swing_ota_0/vmirror se_fold_casc_wide_swing_ota_0/vmirror VSS sky130_fd_pr__nfet_01v8 ad=0p pd=0u as=0p ps=0u w=3e+06u l=4.8e+06u
X70 se_fold_casc_wide_swing_ota_0/vcascpp se_fold_casc_wide_swing_ota_0/vmirror VDD VDD sky130_fd_pr__pfet_01v8_lvt ad=0p pd=0u as=0p ps=0u w=3e+06u l=4.8e+06u
X71 se_fold_casc_wide_swing_ota_0/vmirror se_fold_casc_wide_swing_ota_0/vbias3 se_fold_casc_wide_swing_ota_0/vcascnm VSS sky130_fd_pr__nfet_01v8 ad=0p pd=0u as=0p ps=0u w=3e+06u l=4.8e+06u
X72 se_fold_casc_wide_swing_ota_0/vbias2 se_fold_casc_wide_swing_ota_0/vbias2 se_fold_casc_wide_swing_ota_0/vbias2 VSS sky130_fd_pr__nfet_01v8_lvt ad=0p pd=0u as=0p ps=0u w=3e+06u l=4.8e+06u
X73 VSS vse sky130_fd_pr__cap_mim_m3_2 l=2.6e+07u w=2.4e+07u
X74 se_fold_casc_wide_swing_ota_0/vcascnp se_fold_casc_wide_swing_ota_0/vbias4 VSS VSS sky130_fd_pr__nfet_01v8 ad=0p pd=0u as=0p ps=0u w=3e+06u l=4.8e+06u
X75 se_fold_casc_wide_swing_ota_0/vtail_cascn vip se_fold_casc_wide_swing_ota_0/vcascpm VSS sky130_fd_pr__nfet_01v8_lvt ad=0p pd=0u as=0p ps=0u w=3e+06u l=4.8e+06u
X76 VSS se_fold_casc_wide_swing_ota_0/vbias4 se_fold_casc_wide_swing_ota_0/vcascnm VSS sky130_fd_pr__nfet_01v8 ad=0p pd=0u as=0p ps=0u w=3e+06u l=4.8e+06u
X77 se_fold_casc_wide_swing_ota_0/vbias2 se_fold_casc_wide_swing_ota_0/vbias2 se_fold_casc_wide_swing_ota_0/vbias2 VSS sky130_fd_pr__nfet_01v8_lvt ad=0p pd=0u as=0p ps=0u w=3e+06u l=4.8e+06u
X78 VDD se_fold_casc_wide_swing_ota_0/vbias1 se_fold_casc_wide_swing_ota_0/vtail_cascp VDD sky130_fd_pr__pfet_01v8_lvt ad=0p pd=0u as=0p ps=0u w=3e+06u l=4.8e+06u
X79 VSS se_fold_casc_wide_swing_ota_0/vbias4 se_fold_casc_wide_swing_ota_0/vtail_cascn VSS sky130_fd_pr__nfet_01v8 ad=0p pd=0u as=0p ps=0u w=3e+06u l=4.8e+06u
X80 se_fold_casc_wide_swing_ota_0/vbias1 se_fold_casc_wide_swing_ota_0/vbias1 se_fold_casc_wide_swing_ota_0/vbias2 VSS sky130_fd_pr__nfet_01v8_lvt ad=0p pd=0u as=0p ps=0u w=3e+06u l=4.8e+06u
X81 VDD VDD VDD VDD sky130_fd_pr__pfet_01v8_lvt ad=0p pd=0u as=0p ps=0u w=3e+06u l=4.8e+06u
X82 se_fold_casc_wide_swing_ota_0/M9d se_fold_casc_wide_swing_ota_0/M9d se_fold_casc_wide_swing_ota_0/M9d VDD sky130_fd_pr__pfet_01v8 ad=0p pd=0u as=0p ps=0u w=3e+06u l=4.8e+06u
X83 VSS se_fold_casc_wide_swing_ota_0/vbias4 se_fold_casc_wide_swing_ota_0/vcascnp VSS sky130_fd_pr__nfet_01v8 ad=0p pd=0u as=0p ps=0u w=3e+06u l=4.8e+06u
X84 se_fold_casc_wide_swing_ota_0/vbias2 se_fold_casc_wide_swing_ota_0/vbias1 se_fold_casc_wide_swing_ota_0/vbias1 VSS sky130_fd_pr__nfet_01v8_lvt ad=0p pd=0u as=0p ps=0u w=3e+06u l=4.8e+06u
X85 se_fold_casc_wide_swing_ota_0/vcascnp se_fold_casc_wide_swing_ota_0/vcascnp se_fold_casc_wide_swing_ota_0/vcascnp VDD sky130_fd_pr__pfet_01v8_lvt ad=0p pd=0u as=0p ps=0u w=3e+06u l=4.8e+06u
X86 VSS se_fold_casc_wide_swing_ota_0/vbias4 se_fold_casc_wide_swing_ota_0/vcascnp VSS sky130_fd_pr__nfet_01v8 ad=0p pd=0u as=0p ps=0u w=3e+06u l=4.8e+06u
X87 se_fold_casc_wide_swing_ota_0/vcascpp VDD VDD VDD sky130_fd_pr__pfet_01v8 ad=0p pd=0u as=0p ps=0u w=3e+06u l=4.8e+06u
X88 ibiasn ibiasn ibiasn VSS sky130_fd_pr__nfet_01v8 ad=0p pd=0u as=0p ps=0u w=3e+06u l=4.8e+06u
X89 VSS ibiasn se_fold_casc_wide_swing_ota_0/vbias2 VSS sky130_fd_pr__nfet_01v8 ad=0p pd=0u as=0p ps=0u w=3e+06u l=4.8e+06u
X90 se_fold_casc_wide_swing_ota_0/vtail_cascn vim se_fold_casc_wide_swing_ota_0/vcascpp VSS sky130_fd_pr__nfet_01v8_lvt ad=0p pd=0u as=0p ps=0u w=3e+06u l=4.8e+06u
X91 se_fold_casc_wide_swing_ota_0/vtail_cascn vip se_fold_casc_wide_swing_ota_0/vcascpm VSS sky130_fd_pr__nfet_01v8_lvt ad=0p pd=0u as=0p ps=0u w=3e+06u l=4.8e+06u
X92 se_fold_casc_wide_swing_ota_0/vcascnp se_fold_casc_wide_swing_ota_0/vbias4 VSS VSS sky130_fd_pr__nfet_01v8 ad=0p pd=0u as=0p ps=0u w=3e+06u l=4.8e+06u
X93 se_fold_casc_wide_swing_ota_0/vcascpp se_fold_casc_wide_swing_ota_0/vbias2 vse VDD sky130_fd_pr__pfet_01v8 ad=0p pd=0u as=0p ps=0u w=3e+06u l=4.8e+06u
X94 se_fold_casc_wide_swing_ota_0/vmirror se_fold_casc_wide_swing_ota_0/vbias2 se_fold_casc_wide_swing_ota_0/vcascpm VDD sky130_fd_pr__pfet_01v8 ad=0p pd=0u as=0p ps=0u w=3e+06u l=4.8e+06u
X95 se_fold_casc_wide_swing_ota_0/vcascnp se_fold_casc_wide_swing_ota_0/vbias3 vse VSS sky130_fd_pr__nfet_01v8 ad=0p pd=0u as=0p ps=0u w=3e+06u l=4.8e+06u
X96 se_fold_casc_wide_swing_ota_0/vmirror se_fold_casc_wide_swing_ota_0/vbias3 se_fold_casc_wide_swing_ota_0/vcascnm VSS sky130_fd_pr__nfet_01v8 ad=0p pd=0u as=0p ps=0u w=3e+06u l=4.8e+06u
X97 a_15516_4308# se_fold_casc_wide_swing_ota_0/vbias3 se_fold_casc_wide_swing_ota_0/vbias4 VSS sky130_fd_pr__nfet_01v8 ad=0p pd=0u as=0p ps=0u w=3e+06u l=4.8e+06u
X98 vse vse vse VSS sky130_fd_pr__nfet_01v8 ad=0p pd=0u as=0p ps=0u w=3e+06u l=4.8e+06u
X99 vim VSS VSS VSS sky130_fd_pr__nfet_01v8 ad=0p pd=0u as=0p ps=0u w=1e+06u l=1e+06u
X100 se_fold_casc_wide_swing_ota_0/vbias3 se_fold_casc_wide_swing_ota_0/M8d se_fold_casc_wide_swing_ota_0/M8d VSS sky130_fd_pr__nfet_01v8 ad=0p pd=0u as=0p ps=0u w=3e+06u l=4.8e+06u
X101 se_fold_casc_wide_swing_ota_0/vtail_cascn se_fold_casc_wide_swing_ota_0/vbias4 VSS VSS sky130_fd_pr__nfet_01v8 ad=0p pd=0u as=0p ps=0u w=3e+06u l=4.8e+06u
X102 se_fold_casc_wide_swing_ota_0/vbias1 se_fold_casc_wide_swing_ota_0/vbias1 se_fold_casc_wide_swing_ota_0/vbias2 VSS sky130_fd_pr__nfet_01v8_lvt ad=0p pd=0u as=0p ps=0u w=3e+06u l=4.8e+06u
X103 se_fold_casc_wide_swing_ota_0/vbias1 se_fold_casc_wide_swing_ota_0/vbias1 se_fold_casc_wide_swing_ota_0/vbias2 VSS sky130_fd_pr__nfet_01v8_lvt ad=0p pd=0u as=0p ps=0u w=3e+06u l=4.8e+06u
X104 se_fold_casc_wide_swing_ota_0/vbias3 se_fold_casc_wide_swing_ota_0/M8d se_fold_casc_wide_swing_ota_0/M8d VSS sky130_fd_pr__nfet_01v8 ad=0p pd=0u as=0p ps=0u w=3e+06u l=4.8e+06u
X105 vim rst vdiffm VSS sky130_fd_pr__nfet_01v8 ad=0p pd=0u as=0p ps=0u w=1e+06u l=1e+06u
X106 vim vdiffm sky130_fd_pr__cap_mim_m3_1 l=8e+06u w=8e+06u
X107 VDD se_fold_casc_wide_swing_ota_0/vbias1 se_fold_casc_wide_swing_ota_0/M7d VDD sky130_fd_pr__pfet_01v8_lvt ad=0p pd=0u as=0p ps=0u w=3e+06u l=4.8e+06u
X108 VDD se_fold_casc_wide_swing_ota_0/vbias1 se_fold_casc_wide_swing_ota_0/M13d VDD sky130_fd_pr__pfet_01v8_lvt ad=0p pd=0u as=0p ps=0u w=3e+06u l=4.8e+06u
X109 vdiffp rst vip VSS sky130_fd_pr__nfet_01v8 ad=0p pd=0u as=0p ps=0u w=1e+06u l=1e+06u
X110 se_fold_casc_wide_swing_ota_0/vbias1 se_fold_casc_wide_swing_ota_0/vbias1 se_fold_casc_wide_swing_ota_0/vbias2 VSS sky130_fd_pr__nfet_01v8_lvt ad=0p pd=0u as=0p ps=0u w=3e+06u l=4.8e+06u
X111 se_fold_casc_wide_swing_ota_0/vtail_cascn se_fold_casc_wide_swing_ota_0/vtail_cascn se_fold_casc_wide_swing_ota_0/vtail_cascn VSS sky130_fd_pr__nfet_01v8_lvt ad=0p pd=0u as=0p ps=0u w=3e+06u l=4.8e+06u
X112 se_fold_casc_wide_swing_ota_0/vtail_cascn vim se_fold_casc_wide_swing_ota_0/vcascpp VSS sky130_fd_pr__nfet_01v8_lvt ad=0p pd=0u as=0p ps=0u w=3e+06u l=4.8e+06u
X113 se_fold_casc_wide_swing_ota_0/vtail_cascn vim se_fold_casc_wide_swing_ota_0/vcascpp VSS sky130_fd_pr__nfet_01v8_lvt ad=0p pd=0u as=0p ps=0u w=3e+06u l=4.8e+06u
X114 se_fold_casc_wide_swing_ota_0/vtail_cascn se_fold_casc_wide_swing_ota_0/vbias4 VSS VSS sky130_fd_pr__nfet_01v8 ad=0p pd=0u as=0p ps=0u w=3e+06u l=4.8e+06u
X115 se_fold_casc_wide_swing_ota_0/vbias1 se_fold_casc_wide_swing_ota_0/vbias1 se_fold_casc_wide_swing_ota_0/vbias1 VSS sky130_fd_pr__nfet_01v8_lvt ad=0p pd=0u as=0p ps=0u w=3e+06u l=4.8e+06u
X116 se_fold_casc_wide_swing_ota_0/M9d se_fold_casc_wide_swing_ota_0/vbias2 se_fold_casc_wide_swing_ota_0/M8d VDD sky130_fd_pr__pfet_01v8 ad=0p pd=0u as=0p ps=0u w=3e+06u l=4.8e+06u
X117 vip vdiffp sky130_fd_pr__cap_mim_m3_1 l=8e+06u w=8e+06u
X118 se_fold_casc_wide_swing_ota_0/vcascnp se_fold_casc_wide_swing_ota_0/vbias4 VSS VSS sky130_fd_pr__nfet_01v8 ad=0p pd=0u as=0p ps=0u w=3e+06u l=4.8e+06u
X119 se_fold_casc_wide_swing_ota_0/M13d se_fold_casc_wide_swing_ota_0/vbias2 se_fold_casc_wide_swing_ota_0/M16d VDD sky130_fd_pr__pfet_01v8 ad=0p pd=0u as=0p ps=0u w=3e+06u l=4.8e+06u
X120 se_fold_casc_wide_swing_ota_0/M13d se_fold_casc_wide_swing_ota_0/vbias2 se_fold_casc_wide_swing_ota_0/M16d VDD sky130_fd_pr__pfet_01v8 ad=0p pd=0u as=0p ps=0u w=3e+06u l=4.8e+06u
X121 VSS se_fold_casc_wide_swing_ota_0/vbias4 a_15516_4308# VSS sky130_fd_pr__nfet_01v8 ad=0p pd=0u as=0p ps=0u w=3e+06u l=4.8e+06u
X122 VSS se_fold_casc_wide_swing_ota_0/vbias4 se_fold_casc_wide_swing_ota_0/vcascnp VSS sky130_fd_pr__nfet_01v8 ad=0p pd=0u as=0p ps=0u w=3e+06u l=4.8e+06u
X123 vse se_fold_casc_wide_swing_ota_0/vbias3 se_fold_casc_wide_swing_ota_0/vcascnp VSS sky130_fd_pr__nfet_01v8 ad=0p pd=0u as=0p ps=0u w=3e+06u l=4.8e+06u
X124 a_15516_4308# se_fold_casc_wide_swing_ota_0/vbias4 VSS VSS sky130_fd_pr__nfet_01v8 ad=0p pd=0u as=0p ps=0u w=3e+06u l=4.8e+06u
X125 se_fold_casc_wide_swing_ota_0/vbias4 se_fold_casc_wide_swing_ota_0/vbias3 a_15516_4308# VSS sky130_fd_pr__nfet_01v8 ad=0p pd=0u as=0p ps=0u w=3e+06u l=4.8e+06u
X126 a_15516_4308# se_fold_casc_wide_swing_ota_0/vbias4 VSS VSS sky130_fd_pr__nfet_01v8 ad=0p pd=0u as=0p ps=0u w=3e+06u l=4.8e+06u
X127 vse vse vse VDD sky130_fd_pr__pfet_01v8 ad=0p pd=0u as=0p ps=0u w=3e+06u l=4.8e+06u
X128 VSS se_fold_casc_wide_swing_ota_0/vbias4 se_fold_casc_wide_swing_ota_0/vcascnm VSS sky130_fd_pr__nfet_01v8 ad=0p pd=0u as=0p ps=0u w=3e+06u l=4.8e+06u
X129 se_fold_casc_wide_swing_ota_0/vtail_cascn vip se_fold_casc_wide_swing_ota_0/vcascpm VSS sky130_fd_pr__nfet_01v8_lvt ad=0p pd=0u as=0p ps=0u w=3e+06u l=4.8e+06u
X130 se_fold_casc_wide_swing_ota_0/vtail_cascn se_fold_casc_wide_swing_ota_0/vtail_cascn se_fold_casc_wide_swing_ota_0/vtail_cascn VSS sky130_fd_pr__nfet_01v8_lvt ad=0p pd=0u as=0p ps=0u w=3e+06u l=4.8e+06u
X131 se_fold_casc_wide_swing_ota_0/vtail_cascn vim se_fold_casc_wide_swing_ota_0/vcascpp VSS sky130_fd_pr__nfet_01v8_lvt ad=0p pd=0u as=0p ps=0u w=3e+06u l=4.8e+06u
X132 VSS se_fold_casc_wide_swing_ota_0/vbias4 a_15516_4308# VSS sky130_fd_pr__nfet_01v8 ad=0p pd=0u as=0p ps=0u w=3e+06u l=4.8e+06u
X133 se_fold_casc_wide_swing_ota_0/vbias1 se_fold_casc_wide_swing_ota_0/vbias1 se_fold_casc_wide_swing_ota_0/vbias2 VSS sky130_fd_pr__nfet_01v8_lvt ad=0p pd=0u as=0p ps=0u w=3e+06u l=4.8e+06u
X134 se_fold_casc_wide_swing_ota_0/vbias2 se_fold_casc_wide_swing_ota_0/vbias1 se_fold_casc_wide_swing_ota_0/vbias1 VSS sky130_fd_pr__nfet_01v8_lvt ad=0p pd=0u as=0p ps=0u w=3e+06u l=4.8e+06u
X135 se_fold_casc_wide_swing_ota_0/vcascnp se_fold_casc_wide_swing_ota_0/vbias4 VSS VSS sky130_fd_pr__nfet_01v8 ad=0p pd=0u as=0p ps=0u w=3e+06u l=4.8e+06u
X136 VSS VSS vim VSS sky130_fd_pr__nfet_01v8 ad=0p pd=0u as=0p ps=0u w=1e+06u l=1e+06u
X137 VDD VDD VDD VDD sky130_fd_pr__pfet_01v8_lvt ad=0p pd=0u as=0p ps=0u w=3e+06u l=4.8e+06u
X138 se_fold_casc_wide_swing_ota_0/vbias1 se_fold_casc_wide_swing_ota_0/vbias1 se_fold_casc_wide_swing_ota_0/vbias1 VSS sky130_fd_pr__nfet_01v8_lvt ad=0p pd=0u as=0p ps=0u w=3e+06u l=4.8e+06u
X139 se_fold_casc_wide_swing_ota_0/vcascnm se_fold_casc_wide_swing_ota_0/vbias4 VSS VSS sky130_fd_pr__nfet_01v8 ad=0p pd=0u as=0p ps=0u w=3e+06u l=4.8e+06u
X140 se_fold_casc_wide_swing_ota_0/vbias2 se_fold_casc_wide_swing_ota_0/vbias1 se_fold_casc_wide_swing_ota_0/vbias1 VSS sky130_fd_pr__nfet_01v8_lvt ad=0p pd=0u as=0p ps=0u w=3e+06u l=4.8e+06u
X141 se_fold_casc_wide_swing_ota_0/vbias1 se_fold_casc_wide_swing_ota_0/vbias1 se_fold_casc_wide_swing_ota_0/vbias2 VSS sky130_fd_pr__nfet_01v8_lvt ad=0p pd=0u as=0p ps=0u w=3e+06u l=4.8e+06u
X142 VDD VDD VDD VDD sky130_fd_pr__pfet_01v8_lvt ad=0p pd=0u as=0p ps=0u w=3e+06u l=4.8e+06u
X143 se_fold_casc_wide_swing_ota_0/vbias1 se_fold_casc_wide_swing_ota_0/vbias1 se_fold_casc_wide_swing_ota_0/vbias1 VSS sky130_fd_pr__nfet_01v8_lvt ad=0p pd=0u as=0p ps=0u w=3e+06u l=4.8e+06u
X144 se_fold_casc_wide_swing_ota_0/vcascnm se_fold_casc_wide_swing_ota_0/vcascnm se_fold_casc_wide_swing_ota_0/vcascnm VSS sky130_fd_pr__nfet_01v8 ad=0p pd=0u as=0p ps=0u w=3e+06u l=4.8e+06u
X145 se_fold_casc_wide_swing_ota_0/vtail_cascp vim se_fold_casc_wide_swing_ota_0/vcascnp VDD sky130_fd_pr__pfet_01v8_lvt ad=0p pd=0u as=0p ps=0u w=3e+06u l=4.8e+06u
X146 VSS se_fold_casc_wide_swing_ota_0/vbias4 se_fold_casc_wide_swing_ota_0/vtail_cascn VSS sky130_fd_pr__nfet_01v8 ad=0p pd=0u as=0p ps=0u w=3e+06u l=4.8e+06u
X147 se_fold_casc_wide_swing_ota_0/vtail_cascn se_fold_casc_wide_swing_ota_0/vtail_cascn se_fold_casc_wide_swing_ota_0/vtail_cascn VSS sky130_fd_pr__nfet_01v8_lvt ad=0p pd=0u as=0p ps=0u w=3e+06u l=4.8e+06u
X148 se_fold_casc_wide_swing_ota_0/vtail_cascn vip se_fold_casc_wide_swing_ota_0/vcascpm VSS sky130_fd_pr__nfet_01v8_lvt ad=0p pd=0u as=0p ps=0u w=3e+06u l=4.8e+06u
X149 VSS VSS sky130_fd_pr__cap_mim_m3_1 l=2e+06u w=3.1e+07u
X150 se_fold_casc_wide_swing_ota_0/vbias1 se_fold_casc_wide_swing_ota_0/vbias1 se_fold_casc_wide_swing_ota_0/vbias2 VSS sky130_fd_pr__nfet_01v8_lvt ad=0p pd=0u as=0p ps=0u w=3e+06u l=4.8e+06u
X151 se_fold_casc_wide_swing_ota_0/vbias4 se_fold_casc_wide_swing_ota_0/M8d se_fold_casc_wide_swing_ota_0/vbias3 VSS sky130_fd_pr__nfet_01v8 ad=0p pd=0u as=0p ps=0u w=3e+06u l=4.8e+06u
X152 se_fold_casc_wide_swing_ota_0/vcascpm se_fold_casc_wide_swing_ota_0/vbias2 se_fold_casc_wide_swing_ota_0/vmirror VDD sky130_fd_pr__pfet_01v8 ad=0p pd=0u as=0p ps=0u w=3e+06u l=4.8e+06u
X153 vse vse vse VSS sky130_fd_pr__nfet_01v8 ad=0p pd=0u as=0p ps=0u w=3e+06u l=4.8e+06u
X154 VSS VSS VSS VSS sky130_fd_pr__nfet_01v8 ad=0p pd=0u as=0p ps=0u w=3e+06u l=4.8e+06u
X155 vse se_fold_casc_wide_swing_ota_0/vbias3 se_fold_casc_wide_swing_ota_0/vcascnp VSS sky130_fd_pr__nfet_01v8 ad=0p pd=0u as=0p ps=0u w=3e+06u l=4.8e+06u
X156 se_fold_casc_wide_swing_ota_0/vbias1 se_fold_casc_wide_swing_ota_0/vbias1 se_fold_casc_wide_swing_ota_0/vbias2 VSS sky130_fd_pr__nfet_01v8_lvt ad=0p pd=0u as=0p ps=0u w=3e+06u l=4.8e+06u
X157 se_fold_casc_wide_swing_ota_0/vmirror se_fold_casc_wide_swing_ota_0/vbias3 se_fold_casc_wide_swing_ota_0/vcascnm VSS sky130_fd_pr__nfet_01v8 ad=0p pd=0u as=0p ps=0u w=3e+06u l=4.8e+06u
X158 VSS se_fold_casc_wide_swing_ota_0/vbias4 se_fold_casc_wide_swing_ota_0/vtail_cascn VSS sky130_fd_pr__nfet_01v8 ad=0p pd=0u as=0p ps=0u w=3e+06u l=4.8e+06u
X159 se_fold_casc_wide_swing_ota_0/vbias2 se_fold_casc_wide_swing_ota_0/vbias1 se_fold_casc_wide_swing_ota_0/vbias1 VSS sky130_fd_pr__nfet_01v8_lvt ad=0p pd=0u as=0p ps=0u w=3e+06u l=4.8e+06u
X160 se_fold_casc_wide_swing_ota_0/vbias2 ibiasn VSS VSS sky130_fd_pr__nfet_01v8 ad=0p pd=0u as=0p ps=0u w=3e+06u l=4.8e+06u
X161 VSS VSS sky130_fd_pr__cap_mim_m3_1 l=2e+06u w=3.1e+07u
X162 se_fold_casc_wide_swing_ota_0/vtail_cascn se_fold_casc_wide_swing_ota_0/vtail_cascn se_fold_casc_wide_swing_ota_0/vtail_cascn VSS sky130_fd_pr__nfet_01v8_lvt ad=0p pd=0u as=0p ps=0u w=3e+06u l=4.8e+06u
X163 VDD VDD VDD VDD sky130_fd_pr__pfet_01v8_lvt ad=0p pd=0u as=0p ps=0u w=3e+06u l=4.8e+06u
X164 se_fold_casc_wide_swing_ota_0/vbias2 se_fold_casc_wide_swing_ota_0/vbias1 se_fold_casc_wide_swing_ota_0/vbias1 VSS sky130_fd_pr__nfet_01v8_lvt ad=0p pd=0u as=0p ps=0u w=3e+06u l=4.8e+06u
X165 vim vdiffm sky130_fd_pr__cap_mim_m3_1 l=8e+06u w=8e+06u
X166 se_fold_casc_wide_swing_ota_0/M13d se_fold_casc_wide_swing_ota_0/vbias1 VDD VDD sky130_fd_pr__pfet_01v8_lvt ad=0p pd=0u as=0p ps=0u w=3e+06u l=4.8e+06u
X167 VSS se_fold_casc_wide_swing_ota_0/vbias4 se_fold_casc_wide_swing_ota_0/vtail_cascn VSS sky130_fd_pr__nfet_01v8 ad=0p pd=0u as=0p ps=0u w=3e+06u l=4.8e+06u
X168 se_fold_casc_wide_swing_ota_0/vbias2 se_fold_casc_wide_swing_ota_0/vbias1 se_fold_casc_wide_swing_ota_0/vbias1 VSS sky130_fd_pr__nfet_01v8_lvt ad=0p pd=0u as=0p ps=0u w=3e+06u l=4.8e+06u
X169 VSS se_fold_casc_wide_swing_ota_0/vbias4 se_fold_casc_wide_swing_ota_0/vtail_cascn VSS sky130_fd_pr__nfet_01v8 ad=0p pd=0u as=0p ps=0u w=3e+06u l=4.8e+06u
X170 VDD VDD se_fold_casc_wide_swing_ota_0/M13d VDD sky130_fd_pr__pfet_01v8 ad=0p pd=0u as=0p ps=0u w=3e+06u l=4.8e+06u
X171 se_fold_casc_wide_swing_ota_0/vcascnm se_fold_casc_wide_swing_ota_0/vbias3 se_fold_casc_wide_swing_ota_0/vmirror VSS sky130_fd_pr__nfet_01v8 ad=0p pd=0u as=0p ps=0u w=3e+06u l=4.8e+06u
X172 VSS se_fold_casc_wide_swing_ota_0/vbias4 a_15516_4308# VSS sky130_fd_pr__nfet_01v8 ad=0p pd=0u as=0p ps=0u w=3e+06u l=4.8e+06u
X173 se_fold_casc_wide_swing_ota_0/M16d se_fold_casc_wide_swing_ota_0/vbias2 se_fold_casc_wide_swing_ota_0/M13d VDD sky130_fd_pr__pfet_01v8 ad=0p pd=0u as=0p ps=0u w=3e+06u l=4.8e+06u
X174 VSS se_fold_casc_wide_swing_ota_0/vbias4 se_fold_casc_wide_swing_ota_0/vcascnp VSS sky130_fd_pr__nfet_01v8 ad=0p pd=0u as=0p ps=0u w=3e+06u l=4.8e+06u
X175 VSS se_fold_casc_wide_swing_ota_0/vbias4 se_fold_casc_wide_swing_ota_0/vcascnm VSS sky130_fd_pr__nfet_01v8 ad=0p pd=0u as=0p ps=0u w=3e+06u l=4.8e+06u
X176 VSS VSS sky130_fd_pr__cap_mim_m3_2 l=4e+06u w=2.9e+07u
X177 se_fold_casc_wide_swing_ota_0/vcascnm se_fold_casc_wide_swing_ota_0/vbias3 se_fold_casc_wide_swing_ota_0/vmirror VSS sky130_fd_pr__nfet_01v8 ad=0p pd=0u as=0p ps=0u w=3e+06u l=4.8e+06u
X178 se_fold_casc_wide_swing_ota_0/vmirror se_fold_casc_wide_swing_ota_0/vbias3 se_fold_casc_wide_swing_ota_0/vcascnm VSS sky130_fd_pr__nfet_01v8 ad=0p pd=0u as=0p ps=0u w=3e+06u l=4.8e+06u
X179 VSS vse sky130_fd_pr__cap_mim_m3_2 l=2.6e+07u w=2.4e+07u
X180 se_fold_casc_wide_swing_ota_0/vcascpp se_fold_casc_wide_swing_ota_0/vbias2 vse VDD sky130_fd_pr__pfet_01v8 ad=0p pd=0u as=0p ps=0u w=3e+06u l=4.8e+06u
X181 se_fold_casc_wide_swing_ota_0/vcascnm se_fold_casc_wide_swing_ota_0/vbias3 se_fold_casc_wide_swing_ota_0/vmirror VSS sky130_fd_pr__nfet_01v8 ad=0p pd=0u as=0p ps=0u w=3e+06u l=4.8e+06u
X182 se_fold_casc_wide_swing_ota_0/vmirror se_fold_casc_wide_swing_ota_0/vmirror se_fold_casc_wide_swing_ota_0/vmirror VDD sky130_fd_pr__pfet_01v8 ad=0p pd=0u as=0p ps=0u w=3e+06u l=4.8e+06u
X183 VSS VSS sky130_fd_pr__cap_mim_m3_1 l=2e+06u w=8e+06u
X184 se_fold_casc_wide_swing_ota_0/M7d se_fold_casc_wide_swing_ota_0/vbias1 VDD VDD sky130_fd_pr__pfet_01v8_lvt ad=0p pd=0u as=0p ps=0u w=3e+06u l=4.8e+06u
X185 se_fold_casc_wide_swing_ota_0/M9d se_fold_casc_wide_swing_ota_0/vbias2 se_fold_casc_wide_swing_ota_0/M8d VDD sky130_fd_pr__pfet_01v8 ad=0p pd=0u as=0p ps=0u w=3e+06u l=4.8e+06u
X186 se_fold_casc_wide_swing_ota_0/vbias2 se_fold_casc_wide_swing_ota_0/vbias1 se_fold_casc_wide_swing_ota_0/vbias1 VSS sky130_fd_pr__nfet_01v8_lvt ad=0p pd=0u as=0p ps=0u w=3e+06u l=4.8e+06u
X187 VSS VSS sky130_fd_pr__cap_mim_m3_2 l=3.1e+07u w=2e+06u
X188 se_fold_casc_wide_swing_ota_0/vbias1 se_fold_casc_wide_swing_ota_0/vbias1 se_fold_casc_wide_swing_ota_0/vbias2 VSS sky130_fd_pr__nfet_01v8_lvt ad=0p pd=0u as=0p ps=0u w=3e+06u l=4.8e+06u
X189 vse vim sky130_fd_pr__cap_mim_m3_1 l=8e+06u w=8e+06u
X190 se_fold_casc_wide_swing_ota_0/M9d se_fold_casc_wide_swing_ota_0/vbias1 VDD VDD sky130_fd_pr__pfet_01v8_lvt ad=0p pd=0u as=0p ps=0u w=3e+06u l=4.8e+06u
X191 vip VDD VDD VDD sky130_fd_pr__pfet_01v8_hvt ad=0p pd=0u as=0p ps=0u w=2e+06u l=1e+06u
X192 se_fold_casc_wide_swing_ota_0/vbias1 se_fold_casc_wide_swing_ota_0/vbias1 se_fold_casc_wide_swing_ota_0/vbias2 VSS sky130_fd_pr__nfet_01v8_lvt ad=0p pd=0u as=0p ps=0u w=3e+06u l=4.8e+06u
X193 se_fold_casc_wide_swing_ota_0/vbias2 se_fold_casc_wide_swing_ota_0/vbias1 se_fold_casc_wide_swing_ota_0/vbias1 VSS sky130_fd_pr__nfet_01v8_lvt ad=0p pd=0u as=0p ps=0u w=3e+06u l=4.8e+06u
X194 vse VSS sky130_fd_pr__cap_mim_m3_1 l=2.4e+07u w=2.6e+07u
X195 VSS VSS sky130_fd_pr__cap_mim_m3_1 l=2e+06u w=1.2e+07u
X196 VSS VSS sky130_fd_pr__cap_mim_m3_1 l=8e+06u w=2e+06u