* NGSPICE file created from peak_detector_flat.ext - technology: sky130A

.subckt peak_detector_flat vin ibiasn1 vpeak_out VDD VSS vpeakh rst ibiasn2
X0 se_fold_casc_wide_swing_ota_0/M7d se_fold_casc_wide_swing_ota_0/M7d se_fold_casc_wide_swing_ota_0/M7d VDD sky130_fd_pr__pfet_01v8_lvt ad=0p pd=0u as=0p ps=0u w=3e+06u l=4.8e+06u
X1 se_fold_casc_wide_swing_ota_0/vcascnm se_fold_casc_wide_swing_ota_0/vbias3 se_fold_casc_wide_swing_ota_0/vmirror VSS sky130_fd_pr__nfet_01v8 ad=0p pd=0u as=0p ps=0u w=3e+06u l=4.8e+06u
X2 se_fold_casc_wide_swing_ota_0/M8d se_fold_casc_wide_swing_ota_0/vbias2 se_fold_casc_wide_swing_ota_0/M9d VDD sky130_fd_pr__pfet_01v8 ad=0p pd=0u as=0p ps=0u w=3e+06u l=4.8e+06u
X3 se_fold_casc_wide_swing_ota_0/M8d se_fold_casc_wide_swing_ota_0/M8d se_fold_casc_wide_swing_ota_0/vbias3 VSS sky130_fd_pr__nfet_01v8 ad=0p pd=0u as=0p ps=0u w=3e+06u l=4.8e+06u
X4 VSS se_fold_casc_wide_swing_ota_1/vbias4 se_fold_casc_wide_swing_ota_1/vcascnp VSS sky130_fd_pr__nfet_01v8 ad=0p pd=0u as=0p ps=0u w=3e+06u l=4.8e+06u
X5 se_fold_casc_wide_swing_ota_0/M9d se_fold_casc_wide_swing_ota_0/vbias1 VDD VDD sky130_fd_pr__pfet_01v8_lvt ad=0p pd=0u as=0p ps=0u w=3e+06u l=4.8e+06u
X6 se_fold_casc_wide_swing_ota_0/vbias1 se_fold_casc_wide_swing_ota_0/vbias1 se_fold_casc_wide_swing_ota_0/vbias2 VSS sky130_fd_pr__nfet_01v8_lvt ad=0p pd=0u as=0p ps=0u w=3e+06u l=4.8e+06u
X7 se_fold_casc_wide_swing_ota_0/vbias1 se_fold_casc_wide_swing_ota_0/vbias1 se_fold_casc_wide_swing_ota_0/vbias2 VSS sky130_fd_pr__nfet_01v8_lvt ad=0p pd=0u as=0p ps=0u w=3e+06u l=4.8e+06u
X8 se_fold_casc_wide_swing_ota_0/vcascpm vpeakh se_fold_casc_wide_swing_ota_0/vtail_cascn VSS sky130_fd_pr__nfet_01v8_lvt ad=0p pd=0u as=0p ps=0u w=3e+06u l=4.8e+06u
X9 se_fold_casc_wide_swing_ota_1/M8d se_fold_casc_wide_swing_ota_1/M8d se_fold_casc_wide_swing_ota_1/vbias3 VSS sky130_fd_pr__nfet_01v8 ad=0p pd=0u as=0p ps=0u w=3e+06u l=4.8e+06u
X10 VSS se_fold_casc_wide_swing_ota_0/vbias4 se_fold_casc_wide_swing_ota_0/vcascnm VSS sky130_fd_pr__nfet_01v8 ad=0p pd=0u as=0p ps=0u w=3e+06u l=4.8e+06u
X11 se_fold_casc_wide_swing_ota_1/vcascpm se_fold_casc_wide_swing_ota_1/vmirror VDD VDD sky130_fd_pr__pfet_01v8_lvt ad=0p pd=0u as=0p ps=0u w=3e+06u l=4.8e+06u
X12 VDD se_fold_casc_wide_swing_ota_0/vbias1 se_fold_casc_wide_swing_ota_0/M9d VDD sky130_fd_pr__pfet_01v8_lvt ad=0p pd=0u as=0p ps=0u w=3e+06u l=4.8e+06u
X13 VSS VSS VSS VSS sky130_fd_pr__nfet_01v8 ad=0p pd=0u as=0p ps=0u w=3e+06u l=4.8e+06u
X14 se_fold_casc_wide_swing_ota_1/vbias2 se_fold_casc_wide_swing_ota_1/vbias2 se_fold_casc_wide_swing_ota_1/vbias2 VSS sky130_fd_pr__nfet_01v8_lvt ad=0p pd=0u as=0p ps=0u w=3e+06u l=4.8e+06u
X15 se_fold_casc_wide_swing_ota_0/vcascpm se_fold_casc_wide_swing_ota_0/vmirror VDD VDD sky130_fd_pr__pfet_01v8_lvt ad=0p pd=0u as=0p ps=0u w=3e+06u l=4.8e+06u
X16 se_fold_casc_wide_swing_ota_1/vbias1 VDD VDD VDD sky130_fd_pr__pfet_01v8 ad=0p pd=0u as=0p ps=0u w=3e+06u l=4.8e+06u
X17 se_fold_casc_wide_swing_ota_0/vbias1 se_fold_casc_wide_swing_ota_0/vbias1 se_fold_casc_wide_swing_ota_0/vbias2 VSS sky130_fd_pr__nfet_01v8_lvt ad=0p pd=0u as=0p ps=0u w=3e+06u l=4.8e+06u
X18 se_fold_casc_wide_swing_ota_1/vcascnm se_fold_casc_wide_swing_ota_1/vbias4 VSS VSS sky130_fd_pr__nfet_01v8 ad=0p pd=0u as=0p ps=0u w=3e+06u l=4.8e+06u
X19 se_fold_casc_wide_swing_ota_0/vbias3 se_fold_casc_wide_swing_ota_0/M8d se_fold_casc_wide_swing_ota_0/M8d VSS sky130_fd_pr__nfet_01v8 ad=0p pd=0u as=0p ps=0u w=3e+06u l=4.8e+06u
X20 VSS vpeakh sky130_fd_pr__cap_mim_m3_2 l=2.6e+07u w=2.4e+07u
X21 se_fold_casc_wide_swing_ota_1/M8d se_fold_casc_wide_swing_ota_1/M8d se_fold_casc_wide_swing_ota_1/vbias3 VSS sky130_fd_pr__nfet_01v8 ad=0p pd=0u as=0p ps=0u w=3e+06u l=4.8e+06u
X22 se_fold_casc_wide_swing_ota_0/vbias2 se_fold_casc_wide_swing_ota_0/vbias1 se_fold_casc_wide_swing_ota_0/vbias1 VSS sky130_fd_pr__nfet_01v8_lvt ad=0p pd=0u as=0p ps=0u w=3e+06u l=4.8e+06u
X23 VSS VSS sky130_fd_pr__cap_mim_m3_2 l=3.1e+07u w=2e+06u
X24 VSS se_fold_casc_wide_swing_ota_1/vbias4 a_56554_4138# VSS sky130_fd_pr__nfet_01v8 ad=0p pd=0u as=0p ps=0u w=3e+06u l=4.8e+06u
X25 se_fold_casc_wide_swing_ota_1/vbias2 se_fold_casc_wide_swing_ota_1/vbias2 se_fold_casc_wide_swing_ota_1/vbias2 VSS sky130_fd_pr__nfet_01v8_lvt ad=0p pd=0u as=0p ps=0u w=3e+06u l=4.8e+06u
X26 se_fold_casc_wide_swing_ota_0/vbias4 se_fold_casc_wide_swing_ota_0/vbias3 a_15554_4138# VSS sky130_fd_pr__nfet_01v8 ad=0p pd=0u as=0p ps=0u w=3e+06u l=4.8e+06u
X27 se_fold_casc_wide_swing_ota_1/vbias2 se_fold_casc_wide_swing_ota_1/vbias1 se_fold_casc_wide_swing_ota_1/vbias1 VSS sky130_fd_pr__nfet_01v8_lvt ad=0p pd=0u as=0p ps=0u w=3e+06u l=4.8e+06u
X28 se_fold_casc_wide_swing_ota_1/vtail_cascn se_fold_casc_wide_swing_ota_1/vtail_cascn se_fold_casc_wide_swing_ota_1/vtail_cascn VSS sky130_fd_pr__nfet_01v8 ad=0p pd=0u as=0p ps=0u w=3e+06u l=4.8e+06u
X29 VDD se_fold_casc_wide_swing_ota_0/vbias1 se_fold_casc_wide_swing_ota_0/M13d VDD sky130_fd_pr__pfet_01v8_lvt ad=0p pd=0u as=0p ps=0u w=3e+06u l=4.8e+06u
X30 se_fold_casc_wide_swing_ota_0/M9d se_fold_casc_wide_swing_ota_0/M9d se_fold_casc_wide_swing_ota_0/M9d VDD sky130_fd_pr__pfet_01v8_lvt ad=0p pd=0u as=0p ps=0u w=3e+06u l=4.8e+06u
X31 VDD VDD verr VDD sky130_fd_pr__pfet_01v8 ad=0p pd=0u as=0p ps=0u w=3e+06u l=4.8e+06u
X32 se_fold_casc_wide_swing_ota_0/vcascnp se_fold_casc_wide_swing_ota_0/vbias4 VSS VSS sky130_fd_pr__nfet_01v8 ad=0p pd=0u as=0p ps=0u w=3e+06u l=4.8e+06u
X33 a_56554_4138# se_fold_casc_wide_swing_ota_1/vbias4 VSS VSS sky130_fd_pr__nfet_01v8 ad=0p pd=0u as=0p ps=0u w=3e+06u l=4.8e+06u
X34 se_fold_casc_wide_swing_ota_1/vtail_cascn vin se_fold_casc_wide_swing_ota_1/vcascpp VSS sky130_fd_pr__nfet_01v8_lvt ad=0p pd=0u as=0p ps=0u w=3e+06u l=4.8e+06u
X35 VDD se_fold_casc_wide_swing_ota_0/vmirror se_fold_casc_wide_swing_ota_0/vcascpm VDD sky130_fd_pr__pfet_01v8_lvt ad=0p pd=0u as=0p ps=0u w=3e+06u l=4.8e+06u
X36 se_fold_casc_wide_swing_ota_1/M7d se_fold_casc_wide_swing_ota_1/vbias1 VDD VDD sky130_fd_pr__pfet_01v8_lvt ad=0p pd=0u as=0p ps=0u w=3e+06u l=4.8e+06u
X37 se_fold_casc_wide_swing_ota_0/vbias3 se_fold_casc_wide_swing_ota_0/M8d se_fold_casc_wide_swing_ota_0/M8d VSS sky130_fd_pr__nfet_01v8 ad=0p pd=0u as=0p ps=0u w=3e+06u l=4.8e+06u
X38 se_fold_casc_wide_swing_ota_0/vbias1 se_fold_casc_wide_swing_ota_0/vbias1 se_fold_casc_wide_swing_ota_0/vbias2 VSS sky130_fd_pr__nfet_01v8_lvt ad=0p pd=0u as=0p ps=0u w=3e+06u l=4.8e+06u
X39 VSS VSS sky130_fd_pr__cap_mim_m3_2 l=3.1e+07u w=2e+06u
X40 se_fold_casc_wide_swing_ota_1/vmirror se_fold_casc_wide_swing_ota_1/vbias3 se_fold_casc_wide_swing_ota_1/vcascnm VSS sky130_fd_pr__nfet_01v8 ad=0p pd=0u as=0p ps=0u w=3e+06u l=4.8e+06u
X41 se_fold_casc_wide_swing_ota_0/vcascpm VDD VDD VDD sky130_fd_pr__pfet_01v8 ad=0p pd=0u as=0p ps=0u w=3e+06u l=4.8e+06u
X42 se_fold_casc_wide_swing_ota_1/vcascnp vin se_fold_casc_wide_swing_ota_1/vtail_cascp VDD sky130_fd_pr__pfet_01v8_lvt ad=0p pd=0u as=0p ps=0u w=3e+06u l=4.8e+06u
X43 VSS se_fold_casc_wide_swing_ota_0/vbias4 a_15554_4138# VSS sky130_fd_pr__nfet_01v8 ad=0p pd=0u as=0p ps=0u w=3e+06u l=4.8e+06u
X44 se_fold_casc_wide_swing_ota_0/vcascnm se_fold_casc_wide_swing_ota_0/vbias3 se_fold_casc_wide_swing_ota_0/vmirror VSS sky130_fd_pr__nfet_01v8 ad=0p pd=0u as=0p ps=0u w=3e+06u l=4.8e+06u
X45 VSS se_fold_casc_wide_swing_ota_0/vbias4 se_fold_casc_wide_swing_ota_0/vtail_cascn VSS sky130_fd_pr__nfet_01v8 ad=0p pd=0u as=0p ps=0u w=3e+06u l=4.8e+06u
X46 VDD VDD se_fold_casc_wide_swing_ota_0/M16d VDD sky130_fd_pr__pfet_01v8 ad=0p pd=0u as=0p ps=0u w=3e+06u l=4.8e+06u
X47 se_fold_casc_wide_swing_ota_1/vbias1 se_fold_casc_wide_swing_ota_1/vbias1 se_fold_casc_wide_swing_ota_1/vbias1 VSS sky130_fd_pr__nfet_01v8_lvt ad=0p pd=0u as=0p ps=0u w=3e+06u l=4.8e+06u
X48 VDD se_fold_casc_wide_swing_ota_0/vbias1 se_fold_casc_wide_swing_ota_0/M13d VDD sky130_fd_pr__pfet_01v8_lvt ad=0p pd=0u as=0p ps=0u w=3e+06u l=4.8e+06u
X49 vpeakh VDD VDD VDD sky130_fd_pr__pfet_01v8 ad=0p pd=0u as=0p ps=0u w=1e+06u l=1e+06u
X50 se_fold_casc_wide_swing_ota_1/vtail_cascn se_fold_casc_wide_swing_ota_1/vbias4 VSS VSS sky130_fd_pr__nfet_01v8 ad=0p pd=0u as=0p ps=0u w=3e+06u l=4.8e+06u
X51 se_fold_casc_wide_swing_ota_1/vcascnp se_fold_casc_wide_swing_ota_1/vbias4 VSS VSS sky130_fd_pr__nfet_01v8 ad=0p pd=0u as=0p ps=0u w=3e+06u l=4.8e+06u
X52 VDD VDD se_fold_casc_wide_swing_ota_0/vmirror VDD sky130_fd_pr__pfet_01v8 ad=0p pd=0u as=0p ps=0u w=3e+06u l=4.8e+06u
X53 se_fold_casc_wide_swing_ota_0/vcascnm se_fold_casc_wide_swing_ota_0/vcascnm se_fold_casc_wide_swing_ota_0/vcascnm VSS sky130_fd_pr__nfet_01v8 ad=0p pd=0u as=0p ps=0u w=3e+06u l=4.8e+06u
X54 VSS se_fold_casc_wide_swing_ota_0/vbias4 se_fold_casc_wide_swing_ota_0/vcascnm VSS sky130_fd_pr__nfet_01v8 ad=0p pd=0u as=0p ps=0u w=3e+06u l=4.8e+06u
X55 se_fold_casc_wide_swing_ota_0/vtail_cascp vpeakh se_fold_casc_wide_swing_ota_0/vcascnm VDD sky130_fd_pr__pfet_01v8_lvt ad=0p pd=0u as=0p ps=0u w=3e+06u l=4.8e+06u
X56 se_fold_casc_wide_swing_ota_1/vbias1 se_fold_casc_wide_swing_ota_1/vbias1 se_fold_casc_wide_swing_ota_1/vbias2 VSS sky130_fd_pr__nfet_01v8_lvt ad=0p pd=0u as=0p ps=0u w=3e+06u l=4.8e+06u
X57 VSS VSS sky130_fd_pr__cap_mim_m3_2 l=4e+06u w=2.9e+07u
X58 VSS VSS sky130_fd_pr__cap_mim_m3_2 l=3.1e+07u w=2e+06u
X59 se_fold_casc_wide_swing_ota_1/vcascpm vpeak_out se_fold_casc_wide_swing_ota_1/vtail_cascn VSS sky130_fd_pr__nfet_01v8_lvt ad=0p pd=0u as=0p ps=0u w=3e+06u l=4.8e+06u
X60 VSS VSS VSS VSS sky130_fd_pr__nfet_01v8 ad=0p pd=0u as=0p ps=0u w=3e+06u l=4.8e+06u
X61 se_fold_casc_wide_swing_ota_1/vcascnp se_fold_casc_wide_swing_ota_1/vbias3 verr VSS sky130_fd_pr__nfet_01v8 ad=0p pd=0u as=0p ps=0u w=3e+06u l=4.8e+06u
X62 se_fold_casc_wide_swing_ota_1/vcascnm vpeak_out se_fold_casc_wide_swing_ota_1/vtail_cascp VDD sky130_fd_pr__pfet_01v8_lvt ad=0p pd=0u as=0p ps=0u w=3e+06u l=4.8e+06u
X63 VSS VSS sky130_fd_pr__cap_mim_m3_1 l=2.9e+07u w=4e+06u
X64 se_fold_casc_wide_swing_ota_1/vtail_cascn se_fold_casc_wide_swing_ota_1/vbias4 VSS VSS sky130_fd_pr__nfet_01v8 ad=0p pd=0u as=0p ps=0u w=3e+06u l=4.8e+06u
X65 se_fold_casc_wide_swing_ota_0/vcascnm se_fold_casc_wide_swing_ota_0/vbias4 VSS VSS sky130_fd_pr__nfet_01v8 ad=0p pd=0u as=0p ps=0u w=3e+06u l=4.8e+06u
X66 se_fold_casc_wide_swing_ota_0/vtail_cascp se_fold_casc_wide_swing_ota_0/vbias1 VDD VDD sky130_fd_pr__pfet_01v8_lvt ad=0p pd=0u as=0p ps=0u w=3e+06u l=4.8e+06u
X67 se_fold_casc_wide_swing_ota_0/vcascpm se_fold_casc_wide_swing_ota_0/vmirror VDD VDD sky130_fd_pr__pfet_01v8_lvt ad=0p pd=0u as=0p ps=0u w=3e+06u l=4.8e+06u
X68 VSS se_fold_casc_wide_swing_ota_1/vbias4 se_fold_casc_wide_swing_ota_1/vtail_cascn VSS sky130_fd_pr__nfet_01v8 ad=0p pd=0u as=0p ps=0u w=3e+06u l=4.8e+06u
X69 se_fold_casc_wide_swing_ota_0/M8d se_fold_casc_wide_swing_ota_0/vbias2 se_fold_casc_wide_swing_ota_0/M9d VDD sky130_fd_pr__pfet_01v8 ad=0p pd=0u as=0p ps=0u w=3e+06u l=4.8e+06u
X70 se_fold_casc_wide_swing_ota_1/vbias1 se_fold_casc_wide_swing_ota_1/vbias1 se_fold_casc_wide_swing_ota_1/vbias2 VSS sky130_fd_pr__nfet_01v8_lvt ad=0p pd=0u as=0p ps=0u w=3e+06u l=4.8e+06u
X71 se_fold_casc_wide_swing_ota_1/vcascnm se_fold_casc_wide_swing_ota_1/vbias4 VSS VSS sky130_fd_pr__nfet_01v8 ad=0p pd=0u as=0p ps=0u w=3e+06u l=4.8e+06u
X72 VDD VDD VDD VDD sky130_fd_pr__pfet_01v8_lvt ad=0p pd=0u as=0p ps=0u w=3e+06u l=4.8e+06u
X73 VSS se_fold_casc_wide_swing_ota_0/vbias4 se_fold_casc_wide_swing_ota_0/vtail_cascn VSS sky130_fd_pr__nfet_01v8 ad=0p pd=0u as=0p ps=0u w=3e+06u l=4.8e+06u
X74 VSS VSS sky130_fd_pr__cap_mim_m3_1 l=2e+06u w=3.1e+07u
X75 se_fold_casc_wide_swing_ota_0/vcascpm se_fold_casc_wide_swing_ota_0/vmirror VDD VDD sky130_fd_pr__pfet_01v8_lvt ad=0p pd=0u as=0p ps=0u w=3e+06u l=4.8e+06u
X76 se_fold_casc_wide_swing_ota_1/M8d se_fold_casc_wide_swing_ota_1/vbias2 se_fold_casc_wide_swing_ota_1/M9d VDD sky130_fd_pr__pfet_01v8 ad=0p pd=0u as=0p ps=0u w=3e+06u l=4.8e+06u
X77 VSS ibiasn2 se_fold_casc_wide_swing_ota_0/vbias2 VSS sky130_fd_pr__nfet_01v8 ad=0p pd=0u as=0p ps=0u w=3e+06u l=4.8e+06u
X78 VSS se_fold_casc_wide_swing_ota_1/vbias4 se_fold_casc_wide_swing_ota_1/vcascnm VSS sky130_fd_pr__nfet_01v8 ad=0p pd=0u as=0p ps=0u w=3e+06u l=4.8e+06u
X79 VSS se_fold_casc_wide_swing_ota_1/vbias4 se_fold_casc_wide_swing_ota_1/vtail_cascn VSS sky130_fd_pr__nfet_01v8 ad=0p pd=0u as=0p ps=0u w=3e+06u l=4.8e+06u
X80 se_fold_casc_wide_swing_ota_0/vbias2 se_fold_casc_wide_swing_ota_0/vbias1 se_fold_casc_wide_swing_ota_0/vbias1 VSS sky130_fd_pr__nfet_01v8_lvt ad=0p pd=0u as=0p ps=0u w=3e+06u l=4.8e+06u
X81 se_fold_casc_wide_swing_ota_0/vcascnm se_fold_casc_wide_swing_ota_0/vbias4 VSS VSS sky130_fd_pr__nfet_01v8 ad=0p pd=0u as=0p ps=0u w=3e+06u l=4.8e+06u
X82 se_fold_casc_wide_swing_ota_1/vbias1 se_fold_casc_wide_swing_ota_1/vbias1 se_fold_casc_wide_swing_ota_1/vbias2 VSS sky130_fd_pr__nfet_01v8_lvt ad=0p pd=0u as=0p ps=0u w=3e+06u l=4.8e+06u
X83 VDD VDD VDD VDD sky130_fd_pr__pfet_01v8_lvt ad=0p pd=0u as=0p ps=0u w=3e+06u l=4.8e+06u
X84 a_15554_4138# se_fold_casc_wide_swing_ota_0/vbias4 VSS VSS sky130_fd_pr__nfet_01v8 ad=0p pd=0u as=0p ps=0u w=3e+06u l=4.8e+06u
X85 se_fold_casc_wide_swing_ota_1/vbias4 se_fold_casc_wide_swing_ota_1/M8d se_fold_casc_wide_swing_ota_1/vbias3 VSS sky130_fd_pr__nfet_01v8 ad=0p pd=0u as=0p ps=0u w=3e+06u l=4.8e+06u
X86 se_fold_casc_wide_swing_ota_0/vcascnm se_fold_casc_wide_swing_ota_0/vcascnm se_fold_casc_wide_swing_ota_0/vcascnm VDD sky130_fd_pr__pfet_01v8_lvt ad=0p pd=0u as=0p ps=0u w=3e+06u l=4.8e+06u
X87 se_fold_casc_wide_swing_ota_1/vtail_cascn vin se_fold_casc_wide_swing_ota_1/vcascpp VSS sky130_fd_pr__nfet_01v8_lvt ad=0p pd=0u as=0p ps=0u w=3e+06u l=4.8e+06u
X88 a_15554_4138# se_fold_casc_wide_swing_ota_0/vbias3 se_fold_casc_wide_swing_ota_0/vbias4 VSS sky130_fd_pr__nfet_01v8 ad=0p pd=0u as=0p ps=0u w=3e+06u l=4.8e+06u
X89 VSS VSS sky130_fd_pr__cap_mim_m3_1 l=2.9e+07u w=4e+06u
X90 VSS se_fold_casc_wide_swing_ota_1/vbias4 se_fold_casc_wide_swing_ota_1/vcascnm VSS sky130_fd_pr__nfet_01v8 ad=0p pd=0u as=0p ps=0u w=3e+06u l=4.8e+06u
X91 VDD se_fold_casc_wide_swing_ota_0/vbias1 se_fold_casc_wide_swing_ota_0/vtail_cascp VDD sky130_fd_pr__pfet_01v8_lvt ad=0p pd=0u as=0p ps=0u w=3e+06u l=4.8e+06u
X92 VDD VDD se_fold_casc_wide_swing_ota_1/vbias1 VDD sky130_fd_pr__pfet_01v8 ad=0p pd=0u as=0p ps=0u w=3e+06u l=4.8e+06u
X93 se_fold_casc_wide_swing_ota_0/vcascnp se_fold_casc_wide_swing_ota_0/vbias4 VSS VSS sky130_fd_pr__nfet_01v8 ad=0p pd=0u as=0p ps=0u w=3e+06u l=4.8e+06u
X94 se_fold_casc_wide_swing_ota_0/vcascnp se_fold_casc_wide_swing_ota_0/vbias4 VSS VSS sky130_fd_pr__nfet_01v8 ad=0p pd=0u as=0p ps=0u w=3e+06u l=4.8e+06u
X95 se_fold_casc_wide_swing_ota_0/vcascnp se_fold_casc_wide_swing_ota_0/vbias4 VSS VSS sky130_fd_pr__nfet_01v8 ad=0p pd=0u as=0p ps=0u w=3e+06u l=4.8e+06u
X96 se_fold_casc_wide_swing_ota_1/vcascpp vin se_fold_casc_wide_swing_ota_1/vtail_cascn VSS sky130_fd_pr__nfet_01v8_lvt ad=0p pd=0u as=0p ps=0u w=3e+06u l=4.8e+06u
X97 se_fold_casc_wide_swing_ota_1/vcascpm vpeak_out se_fold_casc_wide_swing_ota_1/vtail_cascn VSS sky130_fd_pr__nfet_01v8_lvt ad=0p pd=0u as=0p ps=0u w=3e+06u l=4.8e+06u
X98 se_fold_casc_wide_swing_ota_0/vbias1 se_fold_casc_wide_swing_ota_0/vbias2 se_fold_casc_wide_swing_ota_0/M7d VDD sky130_fd_pr__pfet_01v8 ad=0p pd=0u as=0p ps=0u w=3e+06u l=4.8e+06u
X99 VSS se_fold_casc_wide_swing_ota_1/vbias4 se_fold_casc_wide_swing_ota_1/vcascnp VSS sky130_fd_pr__nfet_01v8 ad=0p pd=0u as=0p ps=0u w=3e+06u l=4.8e+06u
X100 se_fold_casc_wide_swing_ota_0/M13d VDD VDD VDD sky130_fd_pr__pfet_01v8 ad=0p pd=0u as=0p ps=0u w=3e+06u l=4.8e+06u
X101 se_fold_casc_wide_swing_ota_1/vcascpp se_fold_casc_wide_swing_ota_1/vbias2 verr VDD sky130_fd_pr__pfet_01v8 ad=0p pd=0u as=0p ps=0u w=3e+06u l=4.8e+06u
X102 se_fold_casc_wide_swing_ota_1/M8d se_fold_casc_wide_swing_ota_1/M8d se_fold_casc_wide_swing_ota_1/vbias3 VSS sky130_fd_pr__nfet_01v8 ad=0p pd=0u as=0p ps=0u w=3e+06u l=4.8e+06u
X103 vpeak_out VSS sky130_fd_pr__cap_mim_m3_1 l=2.4e+07u w=2.6e+07u
X104 se_fold_casc_wide_swing_ota_1/vcascnm se_fold_casc_wide_swing_ota_1/vbias4 VSS VSS sky130_fd_pr__nfet_01v8 ad=0p pd=0u as=0p ps=0u w=3e+06u l=4.8e+06u
X105 se_fold_casc_wide_swing_ota_0/vmirror se_fold_casc_wide_swing_ota_0/vbias3 se_fold_casc_wide_swing_ota_0/vcascnm VSS sky130_fd_pr__nfet_01v8 ad=0p pd=0u as=0p ps=0u w=3e+06u l=4.8e+06u
X106 VDD VDD se_fold_casc_wide_swing_ota_0/M8d VDD sky130_fd_pr__pfet_01v8 ad=0p pd=0u as=0p ps=0u w=3e+06u l=4.8e+06u
X107 VSS se_fold_casc_wide_swing_ota_0/vbias4 se_fold_casc_wide_swing_ota_0/vcascnp VSS sky130_fd_pr__nfet_01v8 ad=0p pd=0u as=0p ps=0u w=3e+06u l=4.8e+06u
X108 VSS ibiasn1 se_fold_casc_wide_swing_ota_1/vbias2 VSS sky130_fd_pr__nfet_01v8 ad=0p pd=0u as=0p ps=0u w=3e+06u l=4.8e+06u
X109 VDD se_fold_casc_wide_swing_ota_0/vbias1 se_fold_casc_wide_swing_ota_0/M9d VDD sky130_fd_pr__pfet_01v8_lvt ad=0p pd=0u as=0p ps=0u w=3e+06u l=4.8e+06u
X110 VSS se_fold_casc_wide_swing_ota_0/vbias4 se_fold_casc_wide_swing_ota_0/vcascnp VSS sky130_fd_pr__nfet_01v8 ad=0p pd=0u as=0p ps=0u w=3e+06u l=4.8e+06u
X111 VSS se_fold_casc_wide_swing_ota_0/vbias4 se_fold_casc_wide_swing_ota_0/vcascnm VSS sky130_fd_pr__nfet_01v8 ad=0p pd=0u as=0p ps=0u w=3e+06u l=4.8e+06u
X112 se_fold_casc_wide_swing_ota_1/vbias3 se_fold_casc_wide_swing_ota_1/M8d se_fold_casc_wide_swing_ota_1/M8d VSS sky130_fd_pr__nfet_01v8 ad=0p pd=0u as=0p ps=0u w=3e+06u l=4.8e+06u
X113 a_56554_4138# se_fold_casc_wide_swing_ota_1/vbias3 se_fold_casc_wide_swing_ota_1/vbias4 VSS sky130_fd_pr__nfet_01v8 ad=0p pd=0u as=0p ps=0u w=3e+06u l=4.8e+06u
X114 se_fold_casc_wide_swing_ota_1/vtail_cascn vin se_fold_casc_wide_swing_ota_1/vcascpp VSS sky130_fd_pr__nfet_01v8_lvt ad=0p pd=0u as=0p ps=0u w=3e+06u l=4.8e+06u
X115 se_fold_casc_wide_swing_ota_0/vbias2 se_fold_casc_wide_swing_ota_0/vbias2 se_fold_casc_wide_swing_ota_0/vbias2 VSS sky130_fd_pr__nfet_01v8_lvt ad=0p pd=0u as=0p ps=0u w=3e+06u l=4.8e+06u
X116 se_fold_casc_wide_swing_ota_0/vbias4 se_fold_casc_wide_swing_ota_0/vbias3 a_15554_4138# VSS sky130_fd_pr__nfet_01v8 ad=0p pd=0u as=0p ps=0u w=3e+06u l=4.8e+06u
X117 VDD se_fold_casc_wide_swing_ota_0/vmirror se_fold_casc_wide_swing_ota_0/vcascpm VDD sky130_fd_pr__pfet_01v8_lvt ad=0p pd=0u as=0p ps=0u w=3e+06u l=4.8e+06u
X118 VSS se_fold_casc_wide_swing_ota_1/vbias4 se_fold_casc_wide_swing_ota_1/vtail_cascn VSS sky130_fd_pr__nfet_01v8 ad=0p pd=0u as=0p ps=0u w=3e+06u l=4.8e+06u
X119 se_fold_casc_wide_swing_ota_1/vcascpp vin se_fold_casc_wide_swing_ota_1/vtail_cascn VSS sky130_fd_pr__nfet_01v8_lvt ad=0p pd=0u as=0p ps=0u w=3e+06u l=4.8e+06u
X120 se_fold_casc_wide_swing_ota_0/M7d se_fold_casc_wide_swing_ota_0/vbias2 se_fold_casc_wide_swing_ota_0/vbias1 VDD sky130_fd_pr__pfet_01v8 ad=0p pd=0u as=0p ps=0u w=3e+06u l=4.8e+06u
X121 VDD se_fold_casc_wide_swing_ota_1/vbias1 se_fold_casc_wide_swing_ota_1/vtail_cascp VDD sky130_fd_pr__pfet_01v8_lvt ad=0p pd=0u as=0p ps=0u w=3e+06u l=4.8e+06u
X122 VSS se_fold_casc_wide_swing_ota_0/vbias4 se_fold_casc_wide_swing_ota_0/vtail_cascn VSS sky130_fd_pr__nfet_01v8 ad=0p pd=0u as=0p ps=0u w=3e+06u l=4.8e+06u
X123 se_fold_casc_wide_swing_ota_0/vtail_cascn se_fold_casc_wide_swing_ota_0/vtail_cascn se_fold_casc_wide_swing_ota_0/vtail_cascn VSS sky130_fd_pr__nfet_01v8 ad=0p pd=0u as=0p ps=0u w=3e+06u l=4.8e+06u
X124 se_fold_casc_wide_swing_ota_1/vcascpp vin se_fold_casc_wide_swing_ota_1/vtail_cascn VSS sky130_fd_pr__nfet_01v8_lvt ad=0p pd=0u as=0p ps=0u w=3e+06u l=4.8e+06u
X125 VDD se_fold_casc_wide_swing_ota_0/vbias1 se_fold_casc_wide_swing_ota_0/M7d VDD sky130_fd_pr__pfet_01v8_lvt ad=0p pd=0u as=0p ps=0u w=3e+06u l=4.8e+06u
X126 se_fold_casc_wide_swing_ota_0/vtail_cascn se_fold_casc_wide_swing_ota_0/vbias4 VSS VSS sky130_fd_pr__nfet_01v8 ad=0p pd=0u as=0p ps=0u w=3e+06u l=4.8e+06u
X127 se_fold_casc_wide_swing_ota_1/vbias3 se_fold_casc_wide_swing_ota_1/M8d se_fold_casc_wide_swing_ota_1/M8d VSS sky130_fd_pr__nfet_01v8 ad=0p pd=0u as=0p ps=0u w=3e+06u l=4.8e+06u
X128 se_fold_casc_wide_swing_ota_1/M8d se_fold_casc_wide_swing_ota_1/M8d se_fold_casc_wide_swing_ota_1/vbias3 VSS sky130_fd_pr__nfet_01v8 ad=0p pd=0u as=0p ps=0u w=3e+06u l=4.8e+06u
X129 se_fold_casc_wide_swing_ota_1/vcascnm se_fold_casc_wide_swing_ota_1/vbias3 se_fold_casc_wide_swing_ota_1/vmirror VSS sky130_fd_pr__nfet_01v8 ad=0p pd=0u as=0p ps=0u w=3e+06u l=4.8e+06u
X130 se_fold_casc_wide_swing_ota_1/vmirror se_fold_casc_wide_swing_ota_1/vbias2 se_fold_casc_wide_swing_ota_1/vcascpm VDD sky130_fd_pr__pfet_01v8 ad=0p pd=0u as=0p ps=0u w=3e+06u l=4.8e+06u
X131 se_fold_casc_wide_swing_ota_0/vcascnp se_fold_casc_wide_swing_ota_0/vbias4 VSS VSS sky130_fd_pr__nfet_01v8 ad=0p pd=0u as=0p ps=0u w=3e+06u l=4.8e+06u
X132 ibiasn2 ibiasn2 ibiasn2 VSS sky130_fd_pr__nfet_01v8 ad=0p pd=0u as=0p ps=0u w=3e+06u l=4.8e+06u
X133 se_fold_casc_wide_swing_ota_0/vtail_cascp se_fold_casc_wide_swing_ota_0/vbias1 VDD VDD sky130_fd_pr__pfet_01v8_lvt ad=0p pd=0u as=0p ps=0u w=3e+06u l=4.8e+06u
X134 VDD VDD VDD VDD sky130_fd_pr__pfet_01v8 ad=0p pd=0u as=0p ps=0u w=3e+06u l=4.8e+06u
X135 se_fold_casc_wide_swing_ota_0/vbias2 se_fold_casc_wide_swing_ota_0/vbias1 se_fold_casc_wide_swing_ota_0/vbias1 VSS sky130_fd_pr__nfet_01v8_lvt ad=0p pd=0u as=0p ps=0u w=3e+06u l=4.8e+06u
X136 se_fold_casc_wide_swing_ota_1/vcascnm se_fold_casc_wide_swing_ota_1/vbias3 se_fold_casc_wide_swing_ota_1/vmirror VSS sky130_fd_pr__nfet_01v8 ad=0p pd=0u as=0p ps=0u w=3e+06u l=4.8e+06u
X137 se_fold_casc_wide_swing_ota_0/vbias2 se_fold_casc_wide_swing_ota_0/vbias1 se_fold_casc_wide_swing_ota_0/vbias1 VSS sky130_fd_pr__nfet_01v8_lvt ad=0p pd=0u as=0p ps=0u w=3e+06u l=4.8e+06u
X138 vpeak_out vpeak_out vpeak_out VSS sky130_fd_pr__nfet_01v8 ad=0p pd=0u as=0p ps=0u w=3e+06u l=4.8e+06u
X139 se_fold_casc_wide_swing_ota_1/vcascnp se_fold_casc_wide_swing_ota_1/vcascnp se_fold_casc_wide_swing_ota_1/vcascnp VDD sky130_fd_pr__pfet_01v8_lvt ad=0p pd=0u as=0p ps=0u w=3e+06u l=4.8e+06u
X140 VSS se_fold_casc_wide_swing_ota_0/vbias4 se_fold_casc_wide_swing_ota_0/vcascnm VSS sky130_fd_pr__nfet_01v8 ad=0p pd=0u as=0p ps=0u w=3e+06u l=4.8e+06u
X141 se_fold_casc_wide_swing_ota_0/vmirror se_fold_casc_wide_swing_ota_0/vbias3 se_fold_casc_wide_swing_ota_0/vcascnm VSS sky130_fd_pr__nfet_01v8 ad=0p pd=0u as=0p ps=0u w=3e+06u l=4.8e+06u
X142 se_fold_casc_wide_swing_ota_0/vcascpp VDD VDD VDD sky130_fd_pr__pfet_01v8 ad=0p pd=0u as=0p ps=0u w=3e+06u l=4.8e+06u
X143 se_fold_casc_wide_swing_ota_0/vcascpp se_fold_casc_wide_swing_ota_0/vcascpp se_fold_casc_wide_swing_ota_0/vcascpp VSS sky130_fd_pr__nfet_01v8_lvt ad=0p pd=0u as=0p ps=0u w=3e+06u l=4.8e+06u
X144 se_fold_casc_wide_swing_ota_1/vbias3 se_fold_casc_wide_swing_ota_1/M8d se_fold_casc_wide_swing_ota_1/M8d VSS sky130_fd_pr__nfet_01v8 ad=0p pd=0u as=0p ps=0u w=3e+06u l=4.8e+06u
X145 se_fold_casc_wide_swing_ota_1/M13d se_fold_casc_wide_swing_ota_1/vbias2 se_fold_casc_wide_swing_ota_1/M16d VDD sky130_fd_pr__pfet_01v8 ad=0p pd=0u as=0p ps=0u w=3e+06u l=4.8e+06u
X146 VSS VSS sky130_fd_pr__cap_mim_m3_1 l=2.9e+07u w=4e+06u
X147 se_fold_casc_wide_swing_ota_0/vbias3 se_fold_casc_wide_swing_ota_0/M8d se_fold_casc_wide_swing_ota_0/M8d VSS sky130_fd_pr__nfet_01v8 ad=0p pd=0u as=0p ps=0u w=3e+06u l=4.8e+06u
X148 VDD VDD VDD VDD sky130_fd_pr__pfet_01v8_lvt ad=0p pd=0u as=0p ps=0u w=3e+06u l=4.8e+06u
X149 se_fold_casc_wide_swing_ota_0/vtail_cascn vpeakh se_fold_casc_wide_swing_ota_0/vcascpm VSS sky130_fd_pr__nfet_01v8_lvt ad=0p pd=0u as=0p ps=0u w=3e+06u l=4.8e+06u
X150 VDD se_fold_casc_wide_swing_ota_0/vmirror se_fold_casc_wide_swing_ota_0/vcascpp VDD sky130_fd_pr__pfet_01v8_lvt ad=0p pd=0u as=0p ps=0u w=3e+06u l=4.8e+06u
X151 se_fold_casc_wide_swing_ota_1/vcascnp se_fold_casc_wide_swing_ota_1/vcascnp se_fold_casc_wide_swing_ota_1/vcascnp VSS sky130_fd_pr__nfet_01v8 ad=0p pd=0u as=0p ps=0u w=3e+06u l=4.8e+06u
X152 VDD VDD VDD VDD sky130_fd_pr__pfet_01v8 ad=0p pd=0u as=0p ps=0u w=3e+06u l=4.8e+06u
X153 se_fold_casc_wide_swing_ota_0/vcascnp se_fold_casc_wide_swing_ota_0/vbias3 vpeak_out VSS sky130_fd_pr__nfet_01v8 ad=0p pd=0u as=0p ps=0u w=3e+06u l=4.8e+06u
X154 se_fold_casc_wide_swing_ota_1/vcascpp vin se_fold_casc_wide_swing_ota_1/vtail_cascn VSS sky130_fd_pr__nfet_01v8_lvt ad=0p pd=0u as=0p ps=0u w=3e+06u l=4.8e+06u
X155 se_fold_casc_wide_swing_ota_0/vbias3 se_fold_casc_wide_swing_ota_0/M8d se_fold_casc_wide_swing_ota_0/M8d VSS sky130_fd_pr__nfet_01v8 ad=0p pd=0u as=0p ps=0u w=3e+06u l=4.8e+06u
X156 verr se_fold_casc_wide_swing_ota_1/vbias3 se_fold_casc_wide_swing_ota_1/vcascnp VSS sky130_fd_pr__nfet_01v8 ad=0p pd=0u as=0p ps=0u w=3e+06u l=4.8e+06u
X157 a_56554_4138# se_fold_casc_wide_swing_ota_1/vbias3 se_fold_casc_wide_swing_ota_1/vbias4 VSS sky130_fd_pr__nfet_01v8 ad=0p pd=0u as=0p ps=0u w=3e+06u l=4.8e+06u
X158 se_fold_casc_wide_swing_ota_1/vcascnm se_fold_casc_wide_swing_ota_1/vcascnm se_fold_casc_wide_swing_ota_1/vcascnm VDD sky130_fd_pr__pfet_01v8_lvt ad=0p pd=0u as=0p ps=0u w=3e+06u l=4.8e+06u
X159 VSS VSS sky130_fd_pr__cap_mim_m3_1 l=2e+06u w=3.1e+07u
X160 se_fold_casc_wide_swing_ota_1/vbias2 se_fold_casc_wide_swing_ota_1/vbias1 se_fold_casc_wide_swing_ota_1/vbias1 VSS sky130_fd_pr__nfet_01v8_lvt ad=0p pd=0u as=0p ps=0u w=3e+06u l=4.8e+06u
X161 se_fold_casc_wide_swing_ota_0/vcascnp se_fold_casc_wide_swing_ota_0/vbias3 vpeak_out VSS sky130_fd_pr__nfet_01v8 ad=0p pd=0u as=0p ps=0u w=3e+06u l=4.8e+06u
X162 se_fold_casc_wide_swing_ota_0/vtail_cascn se_fold_casc_wide_swing_ota_0/vbias4 VSS VSS sky130_fd_pr__nfet_01v8 ad=0p pd=0u as=0p ps=0u w=3e+06u l=4.8e+06u
X163 VSS se_fold_casc_wide_swing_ota_1/vbias4 se_fold_casc_wide_swing_ota_1/vcascnp VSS sky130_fd_pr__nfet_01v8 ad=0p pd=0u as=0p ps=0u w=3e+06u l=4.8e+06u
X164 se_fold_casc_wide_swing_ota_1/vcascnm se_fold_casc_wide_swing_ota_1/vbias4 VSS VSS sky130_fd_pr__nfet_01v8 ad=0p pd=0u as=0p ps=0u w=3e+06u l=4.8e+06u
X165 se_fold_casc_wide_swing_ota_1/M7d se_fold_casc_wide_swing_ota_1/vbias1 VDD VDD sky130_fd_pr__pfet_01v8_lvt ad=0p pd=0u as=0p ps=0u w=3e+06u l=4.8e+06u
X166 se_fold_casc_wide_swing_ota_1/vbias2 se_fold_casc_wide_swing_ota_1/vbias2 se_fold_casc_wide_swing_ota_1/vbias2 VSS sky130_fd_pr__nfet_01v8_lvt ad=0p pd=0u as=0p ps=0u w=3e+06u l=4.8e+06u
X167 VDD VDD VDD VDD sky130_fd_pr__pfet_01v8_lvt ad=0p pd=0u as=0p ps=0u w=3e+06u l=4.8e+06u
X168 se_fold_casc_wide_swing_ota_1/vbias2 se_fold_casc_wide_swing_ota_1/vbias1 se_fold_casc_wide_swing_ota_1/vbias1 VSS sky130_fd_pr__nfet_01v8_lvt ad=0p pd=0u as=0p ps=0u w=3e+06u l=4.8e+06u
X169 se_fold_casc_wide_swing_ota_0/vcascpm vpeakh se_fold_casc_wide_swing_ota_0/vtail_cascn VSS sky130_fd_pr__nfet_01v8_lvt ad=0p pd=0u as=0p ps=0u w=3e+06u l=4.8e+06u
X170 VSS VSS sky130_fd_pr__cap_mim_m3_2 l=4e+06u w=2.9e+07u
X171 se_fold_casc_wide_swing_ota_1/vcascnp se_fold_casc_wide_swing_ota_1/vbias4 VSS VSS sky130_fd_pr__nfet_01v8 ad=0p pd=0u as=0p ps=0u w=3e+06u l=4.8e+06u
X172 se_fold_casc_wide_swing_ota_0/vtail_cascn vpeak_out se_fold_casc_wide_swing_ota_0/vcascpp VSS sky130_fd_pr__nfet_01v8_lvt ad=0p pd=0u as=0p ps=0u w=3e+06u l=4.8e+06u
X173 VSS se_fold_casc_wide_swing_ota_1/vbias4 se_fold_casc_wide_swing_ota_1/vcascnp VSS sky130_fd_pr__nfet_01v8 ad=0p pd=0u as=0p ps=0u w=3e+06u l=4.8e+06u
X174 se_fold_casc_wide_swing_ota_1/vcascnp se_fold_casc_wide_swing_ota_1/vbias4 VSS VSS sky130_fd_pr__nfet_01v8 ad=0p pd=0u as=0p ps=0u w=3e+06u l=4.8e+06u
X175 se_fold_casc_wide_swing_ota_1/vbias1 se_fold_casc_wide_swing_ota_1/vbias1 se_fold_casc_wide_swing_ota_1/vbias1 VSS sky130_fd_pr__nfet_01v8_lvt ad=0p pd=0u as=0p ps=0u w=3e+06u l=4.8e+06u
X176 se_fold_casc_wide_swing_ota_0/vbias2 se_fold_casc_wide_swing_ota_0/vbias2 se_fold_casc_wide_swing_ota_0/vbias2 VSS sky130_fd_pr__nfet_01v8_lvt ad=0p pd=0u as=0p ps=0u w=3e+06u l=4.8e+06u
X177 VSS se_fold_casc_wide_swing_ota_0/vbias4 se_fold_casc_wide_swing_ota_0/vcascnm VSS sky130_fd_pr__nfet_01v8 ad=0p pd=0u as=0p ps=0u w=3e+06u l=4.8e+06u
X178 se_fold_casc_wide_swing_ota_1/vbias2 se_fold_casc_wide_swing_ota_1/vbias1 se_fold_casc_wide_swing_ota_1/vbias1 VSS sky130_fd_pr__nfet_01v8_lvt ad=0p pd=0u as=0p ps=0u w=3e+06u l=4.8e+06u
X179 se_fold_casc_wide_swing_ota_0/vcascnp se_fold_casc_wide_swing_ota_0/vbias4 VSS VSS sky130_fd_pr__nfet_01v8 ad=0p pd=0u as=0p ps=0u w=3e+06u l=4.8e+06u
X180 se_fold_casc_wide_swing_ota_1/M8d se_fold_casc_wide_swing_ota_1/M8d se_fold_casc_wide_swing_ota_1/vbias3 VSS sky130_fd_pr__nfet_01v8 ad=0p pd=0u as=0p ps=0u w=3e+06u l=4.8e+06u
X181 a_56554_4138# se_fold_casc_wide_swing_ota_1/vbias3 se_fold_casc_wide_swing_ota_1/vbias4 VSS sky130_fd_pr__nfet_01v8 ad=0p pd=0u as=0p ps=0u w=3e+06u l=4.8e+06u
X182 verr se_fold_casc_wide_swing_ota_1/vbias3 se_fold_casc_wide_swing_ota_1/vcascnp VSS sky130_fd_pr__nfet_01v8 ad=0p pd=0u as=0p ps=0u w=3e+06u l=4.8e+06u
X183 se_fold_casc_wide_swing_ota_0/vcascnp se_fold_casc_wide_swing_ota_0/vbias3 vpeak_out VSS sky130_fd_pr__nfet_01v8 ad=0p pd=0u as=0p ps=0u w=3e+06u l=4.8e+06u
X184 VSS se_fold_casc_wide_swing_ota_0/vbias4 a_15554_4138# VSS sky130_fd_pr__nfet_01v8 ad=0p pd=0u as=0p ps=0u w=3e+06u l=4.8e+06u
X185 se_fold_casc_wide_swing_ota_0/M13d se_fold_casc_wide_swing_ota_0/vbias1 VDD VDD sky130_fd_pr__pfet_01v8_lvt ad=0p pd=0u as=0p ps=0u w=3e+06u l=4.8e+06u
X186 VDD VDD VDD VDD sky130_fd_pr__pfet_01v8 ad=0p pd=0u as=0p ps=0u w=3e+06u l=4.8e+06u
X187 se_fold_casc_wide_swing_ota_0/M8d se_fold_casc_wide_swing_ota_0/M8d se_fold_casc_wide_swing_ota_0/vbias3 VSS sky130_fd_pr__nfet_01v8 ad=0p pd=0u as=0p ps=0u w=3e+06u l=4.8e+06u
X188 se_fold_casc_wide_swing_ota_0/vcascpm se_fold_casc_wide_swing_ota_0/vmirror VDD VDD sky130_fd_pr__pfet_01v8_lvt ad=0p pd=0u as=0p ps=0u w=3e+06u l=4.8e+06u
X189 VSS se_fold_casc_wide_swing_ota_0/vbias4 se_fold_casc_wide_swing_ota_0/vcascnp VSS sky130_fd_pr__nfet_01v8 ad=0p pd=0u as=0p ps=0u w=3e+06u l=4.8e+06u
X190 a_56554_4138# se_fold_casc_wide_swing_ota_1/vbias3 se_fold_casc_wide_swing_ota_1/vbias4 VSS sky130_fd_pr__nfet_01v8 ad=0p pd=0u as=0p ps=0u w=3e+06u l=4.8e+06u
X191 se_fold_casc_wide_swing_ota_0/vtail_cascn se_fold_casc_wide_swing_ota_0/vbias4 VSS VSS sky130_fd_pr__nfet_01v8 ad=0p pd=0u as=0p ps=0u w=3e+06u l=4.8e+06u